REMARK  Name = test02
REMARK  6 active torsions:
REMARK  status: ('A' for Active; 'I' for Inactive)
REMARK    1  A    between atoms: _1  and  _2
REMARK    2  A    between atoms: _2  and  _3
REMARK    3  A    between atoms: _8  and  _9
REMARK    4  A    between atoms: _9  and  _10
REMARK    5  A    between atoms: _13  and  _15
REMARK    6  A    between atoms: _19  and  _21
ROOT
ATOM     10  C8  UNL     1       2.840  29.115  17.269  0.00  0.00     0.299 A
ATOM     11  N2  UNL     1       3.752  29.377  16.302  0.00  0.00    -0.201 NA
ATOM     12  C9  UNL     1       3.280  30.502  15.689  0.00  0.00     0.076 A
ATOM     13  C10 UNL     1       2.098  30.889  16.332  0.00  0.00     0.156 A
ATOM     14  O2  UNL     1       1.817  29.981  17.292  0.00  0.00    -0.423 O
ATOM     33  H7  UNL     1       3.773  30.986  14.860  0.00  0.00     0.088 H 
ENDROOT
BRANCH 13 15
ATOM     15  C11 UNL     1       1.154  31.987  16.065  0.00  0.00     0.020 A
ATOM     16  C12 UNL     1       0.200  32.332  17.036  0.00  0.00    -0.051 A
ATOM     17  C13 UNL     1      -0.723  33.334  16.770  0.00  0.00    -0.061 A
ATOM     18  C14 UNL     1      -0.722  33.975  15.532  0.00  0.00    -0.054 A
ATOM     19  C15 UNL     1       0.209  33.607  14.547  0.00  0.00    -0.016 A
ATOM     20  C16 UNL     1       1.136  32.594  14.815  0.00  0.00    -0.043 A
ATOM     35  H9  UNL     1       0.188  31.840  17.998  0.00  0.00     0.063 H 
ATOM     36  H10 UNL     1      -1.447  33.615  17.520  0.00  0.00     0.062 H 
ATOM     37  H11 UNL     1      -1.453  34.744  15.333  0.00  0.00     0.063 H 
ATOM     38  H12 UNL     1       1.855  32.302  14.063  0.00  0.00     0.064 H 
BRANCH 19 21
ATOM     21  C17 UNL     1       0.214  34.276  13.211  0.00  0.00     0.000 A
ATOM     22  C18 UNL     1       0.420  33.522  12.051  0.00  0.00    -0.051 A
ATOM     23  C19 UNL     1       0.440  34.161  10.813  0.00  0.00    -0.043 A
ATOM     24  C20 UNL     1       0.223  35.536  10.746  0.00  0.00     0.027 A
ATOM     25  N3  UNL     1       0.007  36.237  11.873  0.00  0.00    -0.264 NA
ATOM     26  C21 UNL     1       0.000  35.651  13.083  0.00  0.00     0.035 A
ATOM     39  H13 UNL     1       0.575  32.454  12.096  0.00  0.00     0.063 H 
ATOM     40  H14 UNL     1       0.634  33.583   9.927  0.00  0.00     0.064 H 
ATOM     41  H15 UNL     1       0.224  36.078   9.813  0.00  0.00     0.084 H 
ATOM     42  H16 UNL     1      -0.181  36.293  13.931  0.00  0.00     0.085 H 
ENDBRANCH 19 21
ENDBRANCH 13 15
BRANCH 10 9
ATOM      9  N1  UNL     1       2.940  28.101  18.162  0.00  0.00    -0.306 N
ATOM     27  H1  UNL     1       3.553  27.317  17.982  0.00  0.00     0.171 HD
BRANCH 9 8
ATOM      3  C2  UNL     1       1.762  26.477  19.538  0.00  0.00     0.142 A
ATOM      4  C3  UNL     1       0.766  26.202  20.488  0.00  0.00    -0.018 A
ATOM      5  C4  UNL     1       0.032  27.236  21.077  0.00  0.00    -0.058 A
ATOM      6  C5  UNL     1       0.261  28.574  20.761  0.00  0.00    -0.060 A
ATOM      7  C6  UNL     1       1.262  28.883  19.819  0.00  0.00    -0.035 A
ATOM      8  C7  UNL     1       2.045  27.883  19.185  0.00  0.00     0.085 A
ATOM     28  H2  UNL     1       0.543  25.185  20.775  0.00  0.00     0.066 H 
ATOM     29  H3  UNL     1      -0.726  26.976  21.803  0.00  0.00     0.062 H 
ATOM     30  H4  UNL     1       1.445  29.923  19.596  0.00  0.00     0.065 H 
ATOM     43  H17 UNL     1      -0.323  29.349  21.235  0.00  0.00     0.062 H 
BRANCH 3 2
ATOM      2  O1  UNL     1       2.504  25.500  18.921  0.00  0.00    -0.495 OA
BRANCH 2 1
ATOM      1  C1  UNL     1       2.242  24.106  19.071  0.00  0.00     0.078 C
ATOM     31  H5  UNL     1       2.982  23.535  18.514  0.00  0.00     0.067 H 
ATOM     32  H6  UNL     1       2.313  23.800  20.116  0.00  0.00     0.067 H 
ATOM     34  H8  UNL     1       1.253  23.849  18.689  0.00  0.00     0.067 H 
ENDBRANCH 2 1
ENDBRANCH 3 2
ENDBRANCH 9 8
ENDBRANCH 10 9
TORSDOF 6
