test02
                    3D
 By Biocheming.
 43 46  0  0  1  0            999 V2000
    2.2420   24.1060   19.0710 C   0  0  0  0  0  0
    2.5040   25.5000   18.9210 O   0  0  0  0  0  0
    1.7620   26.4770   19.5380 C   0  0  0  0  0  0
    0.7660   26.2020   20.4880 C   0  0  0  0  0  0
    0.0320   27.2360   21.0770 C   0  0  0  0  0  0
    0.2610   28.5740   20.7610 C   0  0  0  0  0  0
    1.2620   28.8830   19.8190 C   0  0  0  0  0  0
    2.0450   27.8830   19.1850 C   0  0  0  0  0  0
    2.9400   28.1010   18.1620 N   0  0  0  0  0  0
    2.8400   29.1150   17.2690 C   0  0  0  0  0  0
    3.7520   29.3770   16.3020 N   0  0  0  0  0  0
    3.2800   30.5020   15.6890 C   0  0  0  0  0  0
    2.0980   30.8890   16.3320 C   0  0  0  0  0  0
    1.8170   29.9810   17.2920 O   0  0  0  0  0  0
    1.1540   31.9870   16.0650 C   0  0  0  0  0  0
    0.2000   32.3320   17.0360 C   0  0  0  0  0  0
   -0.7230   33.3340   16.7700 C   0  0  0  0  0  0
   -0.7220   33.9750   15.5320 C   0  0  0  0  0  0
    0.2090   33.6070   14.5470 C   0  0  0  0  0  0
    1.1360   32.5940   14.8150 C   0  0  0  0  0  0
    0.2140   34.2760   13.2110 C   0  0  0  0  0  0
    0.4200   33.5220   12.0510 C   0  0  0  0  0  0
    0.4400   34.1610   10.8130 C   0  0  0  0  0  0
    0.2230   35.5360   10.7460 C   0  0  0  0  0  0
    0.0070   36.2370   11.8730 N   0  0  0  0  0  0
    0.0000   35.6510   13.0830 C   0  0  0  0  0  0
    3.5530   27.3170   17.9820 H   0  0  0  0  0  0
    0.5430   25.1850   20.7750 H   0  0  0  0  0  0
   -0.7260   26.9760   21.8030 H   0  0  0  0  0  0
    1.4450   29.9230   19.5960 H   0  0  0  0  0  0
    2.9820   23.5350   18.5140 H   0  0  0  0  0  0
    2.3130   23.8000   20.1160 H   0  0  0  0  0  0
    3.7730   30.9860   14.8600 H   0  0  0  0  0  0
    1.2530   23.8490   18.6890 H   0  0  0  0  0  0
    0.1880   31.8400   17.9980 H   0  0  0  0  0  0
   -1.4470   33.6150   17.5200 H   0  0  0  0  0  0
   -1.4530   34.7440   15.3330 H   0  0  0  0  0  0
    1.8550   32.3020   14.0630 H   0  0  0  0  0  0
    0.5750   32.4540   12.0960 H   0  0  0  0  0  0
    0.6340   33.5830    9.9270 H   0  0  0  0  0  0
    0.2240   36.0780    9.8130 H   0  0  0  0  0  0
   -0.1810   36.2930   13.9310 H   0  0  0  0  0  0
   -0.3234   29.3485   21.2353 H   0  0  0  0  0  0
  1 31  1  0  0  0
  1 32  1  0  0  0
  1 34  1  0  0  0
  1  2  1  0  0  0
  2  3  1  0  0  0
  3  4  2  0  0  0
  3  8  1  0  0  0
  4  5  1  0  0  0
  4 28  1  0  0  0
  5 29  1  0  0  0
  5  6  2  0  0  0
  6  7  1  0  0  0
  6 43  1  0  0  0
  7  8  2  0  0  0
  7 30  1  0  0  0
  8  9  1  0  0  0
  9 10  1  0  0  0
  9 27  1  0  0  0
 10 11  2  0  0  0
 10 14  1  0  0  0
 11 12  1  0  0  0
 12 13  2  0  0  0
 12 33  1  0  0  0
 13 14  1  0  0  0
 13 15  1  0  0  0
 15 16  2  0  0  0
 15 20  1  0  0  0
 16 17  1  0  0  0
 16 35  1  0  0  0
 17 18  2  0  0  0
 17 36  1  0  0  0
 18 19  1  0  0  0
 18 37  1  0  0  0
 19 20  2  0  0  0
 19 21  1  0  0  0
 20 38  1  0  0  0
 21 22  2  0  0  0
 21 26  1  0  0  0
 22 23  1  0  0  0
 22 39  1  0  0  0
 23 24  2  0  0  0
 23 40  1  0  0  0
 24 25  1  0  0  0
 24 41  1  0  0  0
 25 26  2  0  0  0
 26 42  1  0  0  0
M  END
$$$$
