MODEL 1
REMARK WATVina v2023-04-05
REMARK WATVINA RESULT:      -8.0
REMARK SCOREN: vdw     :hbond   :elec    :desol   :intra   :torsion  
REMARK SCOREV: -39.49  :-1.04   :-1.48   :0.21    :-0.52   :0.04    
REMARK  Name = test02
REMARK  6 active torsions:
REMARK  status: ('A' for Active; 'I' for Inactive)
REMARK    1  A    between atoms: _1  and  _2
REMARK    2  A    between atoms: _2  and  _3
REMARK    3  A    between atoms: _8  and  _9
REMARK    4  A    between atoms: _9  and  _10
REMARK    5  A    between atoms: _13  and  _15
REMARK    6  A    between atoms: _19  and  _21
ROOT
ATOM     10  C8  UNL     1       3.116  29.234  17.064  0.00  0.00     0.299 A
ATOM     11  N2  UNL     1       3.999  29.546  16.084  0.00  0.00    -0.201 NA
ATOM     12  C9  UNL     1       3.439  30.621  15.456  0.00  0.00     0.076 A
ATOM     13  C10 UNL     1       2.236  30.930  16.103  0.00  0.00     0.156 A
ATOM     14  O2  UNL     1       2.031  30.021  17.081  0.00  0.00    -0.423 O
ATOM     33  H7  UNL     1       3.888  31.126  14.614  0.00  0.00     0.088 H 
ENDROOT
BRANCH 13 15
ATOM     15  C11 UNL     1       1.210  31.949  15.825  0.00  0.00     0.020 A
ATOM     16  C12 UNL     1       0.194  32.184  16.765  0.00  0.00    -0.051 A
ATOM     17  C13 UNL     1      -0.803  33.109  16.487  0.00  0.00    -0.061 A
ATOM     18  C14 UNL     1      -0.812  33.781  15.266  0.00  0.00    -0.054 A
ATOM     19  C15 UNL     1       0.184  33.522  14.310  0.00  0.00    -0.016 A
ATOM     20  C16 UNL     1       1.186  32.586  14.590  0.00  0.00    -0.043 A
ATOM     35  H9  UNL     1       0.189  31.666  17.714  0.00  0.00     0.063 H 
ATOM     36  H10 UNL     1      -1.576  33.306  17.215  0.00  0.00     0.062 H 
ATOM     37  H11 UNL     1      -1.599  34.489  15.057  0.00  0.00     0.063 H 
ATOM     38  H12 UNL     1       1.955  32.378  13.860  0.00  0.00     0.064 H 
BRANCH 19 21
ATOM     21  C17 UNL     1       0.180  34.225  12.992  0.00  0.00     0.000 A
ATOM     22  C18 UNL     1       0.489  33.523  11.822  0.00  0.00    -0.051 A
ATOM     23  C19 UNL     1       0.499  34.195  10.602  0.00  0.00    -0.043 A
ATOM     24  C20 UNL     1       0.171  35.548  10.560  0.00  0.00     0.027 A
ATOM     25  N3  UNL     1      -0.142  36.198  11.695  0.00  0.00    -0.264 NA
ATOM     26  C21 UNL     1      -0.142  35.581  12.889  0.00  0.00     0.035 A
ATOM     39  H13 UNL     1       0.730  32.470  11.847  0.00  0.00     0.063 H 
ATOM     40  H14 UNL     1       0.771  33.659   9.710  0.00  0.00     0.064 H 
ATOM     41  H15 UNL     1       0.160  36.114   9.641  0.00  0.00     0.084 H 
ATOM     42  H16 UNL     1      -0.406  36.183  13.745  0.00  0.00     0.085 H 
ENDBRANCH 19 21
ENDBRANCH 13 15
BRANCH 10 9
ATOM      9  N1  UNL     1       3.299  28.246  17.973  0.00  0.00    -0.306 N
ATOM     27  H1  UNL     1       3.954  27.497  17.793  0.00  0.00     0.171 HD
BRANCH 9 8
ATOM      3  C2  UNL     1       2.146  26.580  19.319  0.00  0.00     0.142 A
ATOM      4  C3  UNL     1       1.185  26.278  20.297  0.00  0.00    -0.018 A
ATOM      5  C4  UNL     1       0.498  27.296  20.966  0.00  0.00    -0.058 A
ATOM      6  C5  UNL     1       0.742  28.643  20.705  0.00  0.00    -0.060 A
ATOM      7  C6  UNL     1       1.709  28.979  19.736  0.00  0.00    -0.035 A
ATOM      8  C7  UNL     1       2.443  27.996  19.022  0.00  0.00     0.085 A
ATOM     28  H2  UNL     1       0.952  25.253  20.544  0.00  0.00     0.066 H 
ATOM     29  H3  UNL     1      -0.234  27.015  21.710  0.00  0.00     0.062 H 
ATOM     30  H4  UNL     1       1.904  30.025  19.556  0.00  0.00     0.065 H 
ATOM     43  H17 UNL     1       0.195  29.405  21.240  0.00  0.00     0.062 H 
BRANCH 3 2
ATOM      2  O1  UNL     1       2.840  25.620  18.625  0.00  0.00    -0.495 OA
BRANCH 2 1
ATOM      1  C1  UNL     1       2.600  24.222  18.769  0.00  0.00     0.078 C
ATOM     31  H5  UNL     1       3.471  23.666  18.429  0.00  0.00     0.067 H 
ATOM     32  H6  UNL     1       2.430  23.955  19.813  0.00  0.00     0.067 H 
ATOM     34  H8  UNL     1       1.740  23.908  18.175  0.00  0.00     0.067 H 
ENDBRANCH 2 1
ENDBRANCH 3 2
ENDBRANCH 9 8
ENDBRANCH 10 9
TORSDOF 6
ENDMDL
MODEL 2
REMARK WATVina v2023-04-05
REMARK WATVINA RESULT:      -7.1
REMARK SCOREN: vdw     :hbond   :elec    :desol   :intra   :torsion  
REMARK SCOREV: -36.46  :-1.08   :-1.86   :0.31    :-0.61   :0.21    
REMARK  Name = test02
REMARK  6 active torsions:
REMARK  status: ('A' for Active; 'I' for Inactive)
REMARK    1  A    between atoms: _1  and  _2
REMARK    2  A    between atoms: _2  and  _3
REMARK    3  A    between atoms: _8  and  _9
REMARK    4  A    between atoms: _9  and  _10
REMARK    5  A    between atoms: _13  and  _15
REMARK    6  A    between atoms: _19  and  _21
ROOT
ATOM     10  C8  UNL     1       3.005  29.338  17.514  0.00  0.00     0.299 A
ATOM     11  N2  UNL     1       3.959  29.560  16.577  0.00  0.00    -0.201 NA
ATOM     12  C9  UNL     1       3.464  30.589  15.829  0.00  0.00     0.076 A
ATOM     13  C10 UNL     1       2.226  30.964  16.363  0.00  0.00     0.156 A
ATOM     14  O2  UNL     1       1.937  30.138  17.393  0.00  0.00    -0.423 O
ATOM     33  H7  UNL     1       3.980  31.020  14.984  0.00  0.00     0.088 H 
ENDROOT
BRANCH 13 15
ATOM     15  C11 UNL     1       1.241  31.972  15.935  0.00  0.00     0.020 A
ATOM     16  C12 UNL     1       0.219  32.361  16.817  0.00  0.00    -0.051 A
ATOM     17  C13 UNL     1      -0.739  33.274  16.402  0.00  0.00    -0.061 A
ATOM     18  C14 UNL     1      -0.706  33.781  15.103  0.00  0.00    -0.054 A
ATOM     19  C15 UNL     1       0.295  33.367  14.209  0.00  0.00    -0.016 A
ATOM     20  C16 UNL     1       1.258  32.443  14.628  0.00  0.00    -0.043 A
ATOM     35  H9  UNL     1       0.182  31.972  17.825  0.00  0.00     0.063 H 
ATOM     36  H10 UNL     1      -1.516  33.590  17.082  0.00  0.00     0.062 H 
ATOM     37  H11 UNL     1      -1.464  34.482  14.788  0.00  0.00     0.063 H 
ATOM     38  H12 UNL     1       2.030  32.116  13.947  0.00  0.00     0.064 H 
BRANCH 19 21
ATOM     21  C17 UNL     1       0.336  33.892  12.811  0.00  0.00     0.000 A
ATOM     22  C18 UNL     1       0.252  35.268  12.577  0.00  0.00    -0.051 A
ATOM     23  C19 UNL     1       0.274  35.743  11.267  0.00  0.00    -0.043 A
ATOM     24  C20 UNL     1       0.411  34.843  10.212  0.00  0.00     0.027 A
ATOM     25  N3  UNL     1       0.510  33.525  10.463  0.00  0.00    -0.264 NA
ATOM     26  C21 UNL     1       0.473  33.036  11.714  0.00  0.00     0.035 A
ATOM     39  H13 UNL     1       0.160  35.971  13.391  0.00  0.00     0.063 H 
ATOM     40  H14 UNL     1       0.174  36.799  11.089  0.00  0.00     0.064 H 
ATOM     41  H15 UNL     1       0.437  35.158   9.180  0.00  0.00     0.084 H 
ATOM     42  H16 UNL     1       0.559  31.966  11.819  0.00  0.00     0.085 H 
ENDBRANCH 19 21
ENDBRANCH 13 15
BRANCH 10 9
ATOM      9  N1  UNL     1       3.106  28.423  18.508  0.00  0.00    -0.306 N
ATOM     27  H1  UNL     1       4.005  28.033  18.757  0.00  0.00     0.171 HD
BRANCH 9 8
ATOM      3  C2  UNL     1       1.061  28.516  19.823  0.00  0.00     0.142 A
ATOM      4  C3  UNL     1       0.023  27.840  20.482  0.00  0.00    -0.018 A
ATOM      5  C4  UNL     1      -0.079  26.447  20.419  0.00  0.00    -0.058 A
ATOM      6  C5  UNL     1       0.828  25.675  19.695  0.00  0.00    -0.060 A
ATOM      7  C6  UNL     1       1.875  26.325  19.014  0.00  0.00    -0.035 A
ATOM      8  C7  UNL     1       2.036  27.736  19.035  0.00  0.00     0.085 A
ATOM     28  H2  UNL     1      -0.712  28.384  21.058  0.00  0.00     0.066 H 
ATOM     29  H3  UNL     1      -0.895  25.969  20.944  0.00  0.00     0.062 H 
ATOM     30  H4  UNL     1       2.560  25.720  18.440  0.00  0.00     0.065 H 
ATOM     43  H17 UNL     1       0.720  24.600  19.666  0.00  0.00     0.062 H 
BRANCH 3 2
ATOM      2  O1  UNL     1       1.215  29.880  19.862  0.00  0.00    -0.495 OA
BRANCH 2 1
ATOM      1  C1  UNL     1       0.154  30.779  20.183  0.00  0.00     0.078 C
ATOM     31  H5  UNL     1       0.476  31.802  19.999  0.00  0.00     0.067 H 
ATOM     32  H6  UNL     1      -0.723  30.595  19.560  0.00  0.00     0.067 H 
ATOM     34  H8  UNL     1      -0.128  30.693  21.234  0.00  0.00     0.067 H 
ENDBRANCH 2 1
ENDBRANCH 3 2
ENDBRANCH 9 8
ENDBRANCH 10 9
TORSDOF 6
ENDMDL
MODEL 3
REMARK WATVina v2023-04-05
REMARK WATVINA RESULT:      -7.0
REMARK SCOREN: vdw     :hbond   :elec    :desol   :intra   :torsion  
REMARK SCOREV: -32.40  :-0.00   :-2.55   :-0.22   :-0.40   :0.10    
REMARK  Name = test02
REMARK  6 active torsions:
REMARK  status: ('A' for Active; 'I' for Inactive)
REMARK    1  A    between atoms: _1  and  _2
REMARK    2  A    between atoms: _2  and  _3
REMARK    3  A    between atoms: _8  and  _9
REMARK    4  A    between atoms: _9  and  _10
REMARK    5  A    between atoms: _13  and  _15
REMARK    6  A    between atoms: _19  and  _21
ROOT
ATOM     10  C8  UNL     1       0.534  29.793  18.067  0.00  0.00     0.299 A
ATOM     11  N2  UNL     1       1.814  29.965  17.658  0.00  0.00    -0.201 NA
ATOM     12  C9  UNL     1       1.780  31.113  16.920  0.00  0.00     0.076 A
ATOM     13  C10 UNL     1       0.469  31.604  16.930  0.00  0.00     0.156 A
ATOM     14  O2  UNL     1      -0.306  30.738  17.619  0.00  0.00    -0.423 O
ATOM     33  H7  UNL     1       2.645  31.542  16.437  0.00  0.00     0.088 H 
ENDROOT
BRANCH 13 15
ATOM     15  C11 UNL     1      -0.145  32.768  16.270  0.00  0.00     0.020 A
ATOM     16  C12 UNL     1      -1.128  33.509  16.946  0.00  0.00    -0.051 A
ATOM     17  C13 UNL     1      -1.744  34.578  16.310  0.00  0.00    -0.061 A
ATOM     18  C14 UNL     1      -1.409  34.897  14.995  0.00  0.00    -0.054 A
ATOM     19  C15 UNL     1      -0.451  34.135  14.306  0.00  0.00    -0.016 A
ATOM     20  C16 UNL     1       0.166  33.055  14.946  0.00  0.00    -0.043 A
ATOM     35  H9  UNL     1      -1.398  33.269  17.964  0.00  0.00     0.063 H 
ATOM     36  H10 UNL     1      -2.488  35.161  16.832  0.00  0.00     0.062 H 
ATOM     37  H11 UNL     1      -1.904  35.723  14.507  0.00  0.00     0.063 H 
ATOM     38  H12 UNL     1       0.903  32.462  14.424  0.00  0.00     0.064 H 
BRANCH 19 21
ATOM     21  C17 UNL     1      -0.091  34.457  12.892  0.00  0.00     0.000 A
ATOM     22  C18 UNL     1       0.259  33.431  12.008  0.00  0.00    -0.051 A
ATOM     23  C19 UNL     1       0.610  33.746  10.697  0.00  0.00    -0.043 A
ATOM     24  C20 UNL     1       0.576  35.075  10.277  0.00  0.00     0.027 A
ATOM     25  N3  UNL     1       0.217  36.042  11.140  0.00  0.00    -0.264 NA
ATOM     26  C21 UNL     1      -0.109  35.770  12.415  0.00  0.00     0.035 A
ATOM     39  H13 UNL     1       0.273  32.398  12.324  0.00  0.00     0.063 H 
ATOM     40  H14 UNL     1       0.912  32.958  10.030  0.00  0.00     0.064 H 
ATOM     41  H15 UNL     1       0.834  35.372   9.272  0.00  0.00     0.084 H 
ATOM     42  H16 UNL     1      -0.383  36.610  13.034  0.00  0.00     0.085 H 
ENDBRANCH 19 21
ENDBRANCH 13 15
BRANCH 10 9
ATOM      9  N1  UNL     1       0.116  28.790  18.877  0.00  0.00    -0.306 N
ATOM     27  H1  UNL     1      -0.645  28.937  19.526  0.00  0.00     0.171 HD
BRANCH 9 8
ATOM      3  C2  UNL     1       0.536  26.913  20.366  0.00  0.00     0.142 A
ATOM      4  C3  UNL     1       1.329  25.808  20.716  0.00  0.00    -0.018 A
ATOM      5  C4  UNL     1       2.404  25.414  19.914  0.00  0.00    -0.058 A
ATOM      6  C5  UNL     1       2.728  26.085  18.736  0.00  0.00    -0.060 A
ATOM      7  C6  UNL     1       1.944  27.191  18.352  0.00  0.00    -0.035 A
ATOM      8  C7  UNL     1       0.838  27.643  19.118  0.00  0.00     0.085 A
ATOM     28  H2  UNL     1       1.127  25.248  21.617  0.00  0.00     0.066 H 
ATOM     29  H3  UNL     1       2.987  24.558  20.224  0.00  0.00     0.062 H 
ATOM     30  H4  UNL     1       2.191  27.691  17.428  0.00  0.00     0.065 H 
ATOM     43  H17 UNL     1       3.564  25.755  18.138  0.00  0.00     0.062 H 
BRANCH 3 2
ATOM      2  O1  UNL     1      -0.523  27.349  21.123  0.00  0.00    -0.495 OA
BRANCH 2 1
ATOM      1  C1  UNL     1      -0.743  26.940  22.472  0.00  0.00     0.078 C
ATOM     31  H5  UNL     1      -1.628  27.437  22.863  0.00  0.00     0.067 H 
ATOM     32  H6  UNL     1      -0.917  25.865  22.536  0.00  0.00     0.067 H 
ATOM     34  H8  UNL     1       0.106  27.204  23.105  0.00  0.00     0.067 H 
ENDBRANCH 2 1
ENDBRANCH 3 2
ENDBRANCH 9 8
ENDBRANCH 10 9
TORSDOF 6
ENDMDL
MODEL 4
REMARK WATVina v2023-04-05
REMARK WATVINA RESULT:      -6.7
REMARK SCOREN: vdw     :hbond   :elec    :desol   :intra   :torsion  
REMARK SCOREV: -35.72  :-0.46   :-1.86   :0.28    :-0.55   :0.36    
REMARK  Name = test02
REMARK  6 active torsions:
REMARK  status: ('A' for Active; 'I' for Inactive)
REMARK    1  A    between atoms: _1  and  _2
REMARK    2  A    between atoms: _2  and  _3
REMARK    3  A    between atoms: _8  and  _9
REMARK    4  A    between atoms: _9  and  _10
REMARK    5  A    between atoms: _13  and  _15
REMARK    6  A    between atoms: _19  and  _21
ROOT
ATOM     10  C8  UNL     1      -0.057  30.740  18.247  0.00  0.00     0.299 A
ATOM     11  N2  UNL     1       0.823  31.409  19.031  0.00  0.00    -0.201 NA
ATOM     12  C9  UNL     1       0.781  32.692  18.565  0.00  0.00     0.076 A
ATOM     13  C10 UNL     1      -0.147  32.749  17.519  0.00  0.00     0.156 A
ATOM     14  O2  UNL     1      -0.629  31.505  17.307  0.00  0.00    -0.423 O
ATOM     33  H7  UNL     1       1.372  33.498  18.972  0.00  0.00     0.088 H 
ENDROOT
BRANCH 13 15
ATOM     15  C11 UNL     1      -0.557  33.853  16.635  0.00  0.00     0.020 A
ATOM     16  C12 UNL     1      -1.405  34.858  17.127  0.00  0.00    -0.051 A
ATOM     17  C13 UNL     1      -1.832  35.874  16.284  0.00  0.00    -0.061 A
ATOM     18  C14 UNL     1      -1.445  35.881  14.945  0.00  0.00    -0.054 A
ATOM     19  C15 UNL     1      -0.625  34.857  14.442  0.00  0.00    -0.016 A
ATOM     20  C16 UNL     1      -0.198  33.831  15.292  0.00  0.00    -0.043 A
ATOM     35  H9  UNL     1      -1.714  34.861  18.163  0.00  0.00     0.063 H 
ATOM     36  H10 UNL     1      -2.470  36.659  16.663  0.00  0.00     0.062 H 
ATOM     37  H11 UNL     1      -1.794  36.670  14.296  0.00  0.00     0.063 H 
ATOM     38  H12 UNL     1       0.431  33.038  14.914  0.00  0.00     0.064 H 
BRANCH 19 21
ATOM     21  C17 UNL     1      -0.212  34.844  13.006  0.00  0.00     0.000 A
ATOM     22  C18 UNL     1       0.098  33.633  12.378  0.00  0.00    -0.051 A
ATOM     23  C19 UNL     1       0.499  33.637  11.043  0.00  0.00    -0.043 A
ATOM     24  C20 UNL     1       0.554  34.842  10.346  0.00  0.00     0.027 A
ATOM     25  N3  UNL     1       0.232  35.991  10.965  0.00  0.00    -0.264 NA
ATOM     26  C21 UNL     1      -0.141  36.021  12.256  0.00  0.00     0.035 A
ATOM     39  H13 UNL     1       0.044  32.695  12.910  0.00  0.00     0.063 H 
ATOM     40  H14 UNL     1       0.771  32.708  10.574  0.00  0.00     0.064 H 
ATOM     41  H15 UNL     1       0.854  34.899   9.311  0.00  0.00     0.084 H 
ATOM     42  H16 UNL     1      -0.380  36.989  12.669  0.00  0.00     0.085 H 
ENDBRANCH 19 21
ENDBRANCH 13 15
BRANCH 10 9
ATOM      9  N1  UNL     1      -0.371  29.430  18.393  0.00  0.00    -0.306 N
ATOM     27  H1  UNL     1      -1.335  29.141  18.490  0.00  0.00     0.171 HD
BRANCH 9 8
ATOM      3  C2  UNL     1       1.711  28.299  17.840  0.00  0.00     0.142 A
ATOM      4  C3  UNL     1       2.599  27.236  18.066  0.00  0.00    -0.018 A
ATOM      5  C4  UNL     1       2.371  26.317  19.095  0.00  0.00    -0.058 A
ATOM      6  C5  UNL     1       1.270  26.420  19.943  0.00  0.00    -0.060 A
ATOM      7  C6  UNL     1       0.366  27.483  19.749  0.00  0.00    -0.035 A
ATOM      8  C7  UNL     1       0.538  28.451  18.725  0.00  0.00     0.085 A
ATOM     28  H2  UNL     1       3.471  27.104  17.443  0.00  0.00     0.066 H 
ATOM     29  H3  UNL     1       3.082  25.514  19.231  0.00  0.00     0.062 H 
ATOM     30  H4  UNL     1      -0.473  27.565  20.424  0.00  0.00     0.065 H 
ATOM     43  H17 UNL     1       1.123  25.694  20.730  0.00  0.00     0.062 H 
BRANCH 3 2
ATOM      2  O1  UNL     1       1.880  29.222  16.838  0.00  0.00    -0.495 OA
BRANCH 2 1
ATOM      1  C1  UNL     1       3.143  29.497  16.233  0.00  0.00     0.078 C
ATOM     31  H5  UNL     1       3.064  30.392  15.620  0.00  0.00     0.067 H 
ATOM     32  H6  UNL     1       3.910  29.685  16.986  0.00  0.00     0.067 H 
ATOM     34  H8  UNL     1       3.461  28.672  15.595  0.00  0.00     0.067 H 
ENDBRANCH 2 1
ENDBRANCH 3 2
ENDBRANCH 9 8
ENDBRANCH 10 9
TORSDOF 6
ENDMDL
MODEL 5
REMARK WATVina v2023-04-05
REMARK WATVINA RESULT:      -6.6
REMARK SCOREN: vdw     :hbond   :elec    :desol   :intra   :torsion  
REMARK SCOREV: -27.46  :-0.18   :-2.35   :-0.63   :-0.38   :0.12    
REMARK  Name = test02
REMARK  6 active torsions:
REMARK  status: ('A' for Active; 'I' for Inactive)
REMARK    1  A    between atoms: _1  and  _2
REMARK    2  A    between atoms: _2  and  _3
REMARK    3  A    between atoms: _8  and  _9
REMARK    4  A    between atoms: _9  and  _10
REMARK    5  A    between atoms: _13  and  _15
REMARK    6  A    between atoms: _19  and  _21
ROOT
ATOM     10  C8  UNL     1       0.121  27.902  19.700  0.00  0.00     0.299 A
ATOM     11  N2  UNL     1       1.202  27.091  19.782  0.00  0.00    -0.201 NA
ATOM     12  C9  UNL     1       2.087  27.616  18.885  0.00  0.00     0.076 A
ATOM     13  C10 UNL     1       1.504  28.749  18.305  0.00  0.00     0.156 A
ATOM     14  O2  UNL     1       0.254  28.886  18.798  0.00  0.00    -0.423 O
ATOM     33  H7  UNL     1       3.066  27.203  18.695  0.00  0.00     0.088 H 
ENDROOT
BRANCH 13 15
ATOM     15  C11 UNL     1       1.980  29.665  17.255  0.00  0.00     0.020 A
ATOM     16  C12 UNL     1       3.312  29.587  16.819  0.00  0.00    -0.051 A
ATOM     17  C13 UNL     1       3.779  30.480  15.865  0.00  0.00    -0.061 A
ATOM     18  C14 UNL     1       2.937  31.471  15.363  0.00  0.00    -0.054 A
ATOM     19  C15 UNL     1       1.614  31.573  15.824  0.00  0.00    -0.016 A
ATOM     20  C16 UNL     1       1.146  30.674  16.789  0.00  0.00    -0.043 A
ATOM     35  H9  UNL     1       3.975  28.825  17.204  0.00  0.00     0.063 H 
ATOM     36  H10 UNL     1       4.798  30.412  15.514  0.00  0.00     0.062 H 
ATOM     37  H11 UNL     1       3.316  32.167  14.630  0.00  0.00     0.063 H 
ATOM     38  H12 UNL     1       0.131  30.746  17.151  0.00  0.00     0.064 H 
BRANCH 19 21
ATOM     21  C17 UNL     1       0.703  32.637  15.305  0.00  0.00     0.000 A
ATOM     22  C18 UNL     1      -0.179  33.289  16.173  0.00  0.00    -0.051 A
ATOM     23  C19 UNL     1      -1.036  34.267  15.672  0.00  0.00    -0.043 A
ATOM     24  C20 UNL     1      -0.979  34.604  14.321  0.00  0.00     0.027 A
ATOM     25  N3  UNL     1      -0.108  33.979  13.510  0.00  0.00    -0.264 NA
ATOM     26  C21 UNL     1       0.718  33.018  13.960  0.00  0.00     0.035 A
ATOM     39  H13 UNL     1      -0.218  33.041  17.223  0.00  0.00     0.063 H 
ATOM     40  H14 UNL     1      -1.737  34.740  16.336  0.00  0.00     0.064 H 
ATOM     41  H15 UNL     1      -1.616  35.357  13.885  0.00  0.00     0.084 H 
ATOM     42  H16 UNL     1       1.382  32.572  13.236  0.00  0.00     0.085 H 
ENDBRANCH 19 21
ENDBRANCH 13 15
BRANCH 10 9
ATOM      9  N1  UNL     1      -0.991  27.777  20.464  0.00  0.00    -0.306 N
ATOM     27  H1  UNL     1      -1.852  28.238  20.198  0.00  0.00     0.171 HD
BRANCH 9 8
ATOM      3  C2  UNL     1      -2.150  27.663  22.600  0.00  0.00     0.142 A
ATOM      4  C3  UNL     1      -2.135  27.315  23.960  0.00  0.00    -0.018 A
ATOM      5  C4  UNL     1      -1.032  26.665  24.521  0.00  0.00    -0.058 A
ATOM      6  C5  UNL     1       0.087  26.325  23.763  0.00  0.00    -0.060 A
ATOM      7  C6  UNL     1       0.097  26.651  22.393  0.00  0.00    -0.035 A
ATOM      8  C7  UNL     1      -0.989  27.309  21.758  0.00  0.00     0.085 A
ATOM     28  H2  UNL     1      -2.974  27.551  24.599  0.00  0.00     0.066 H 
ATOM     29  H3  UNL     1      -1.066  26.418  25.574  0.00  0.00     0.062 H 
ATOM     30  H4  UNL     1       0.960  26.366  21.810  0.00  0.00     0.065 H 
ATOM     43  H17 UNL     1       0.922  25.823  24.228  0.00  0.00     0.062 H 
BRANCH 3 2
ATOM      2  O1  UNL     1      -3.202  28.312  22.000  0.00  0.00    -0.495 OA
BRANCH 2 1
ATOM      1  C1  UNL     1      -4.294  28.870  22.727  0.00  0.00     0.078 C
ATOM     31  H5  UNL     1      -4.956  29.396  22.042  0.00  0.00     0.067 H 
ATOM     32  H6  UNL     1      -4.883  28.092  23.216  0.00  0.00     0.067 H 
ATOM     34  H8  UNL     1      -3.945  29.580  23.478  0.00  0.00     0.067 H 
ENDBRANCH 2 1
ENDBRANCH 3 2
ENDBRANCH 9 8
ENDBRANCH 10 9
TORSDOF 6
ENDMDL
MODEL 6
REMARK WATVina v2023-04-05
REMARK WATVINA RESULT:      -6.5
REMARK SCOREN: vdw     :hbond   :elec    :desol   :intra   :torsion  
REMARK SCOREV: -29.38  :-0.02   :-2.27   :-0.49   :-0.67   :0.67    
REMARK  Name = test02
REMARK  6 active torsions:
REMARK  status: ('A' for Active; 'I' for Inactive)
REMARK    1  A    between atoms: _1  and  _2
REMARK    2  A    between atoms: _2  and  _3
REMARK    3  A    between atoms: _8  and  _9
REMARK    4  A    between atoms: _9  and  _10
REMARK    5  A    between atoms: _13  and  _15
REMARK    6  A    between atoms: _19  and  _21
ROOT
ATOM     10  C8  UNL     1       0.230  28.706  19.932  0.00  0.00     0.299 A
ATOM     11  N2  UNL     1      -1.026  28.945  19.484  0.00  0.00    -0.201 NA
ATOM     12  C9  UNL     1      -0.843  29.582  18.290  0.00  0.00     0.076 A
ATOM     13  C10 UNL     1       0.533  29.684  18.054  0.00  0.00     0.156 A
ATOM     14  O2  UNL     1       1.188  29.167  19.116  0.00  0.00    -0.423 O
ATOM     33  H7  UNL     1      -1.651  29.921  17.660  0.00  0.00     0.088 H 
ENDROOT
BRANCH 13 15
ATOM     15  C11 UNL     1       1.294  30.309  16.959  0.00  0.00     0.020 A
ATOM     16  C12 UNL     1       2.653  30.000  16.795  0.00  0.00    -0.051 A
ATOM     17  C13 UNL     1       3.386  30.623  15.794  0.00  0.00    -0.061 A
ATOM     18  C14 UNL     1       2.782  31.576  14.975  0.00  0.00    -0.054 A
ATOM     19  C15 UNL     1       1.431  31.912  15.161  0.00  0.00    -0.016 A
ATOM     20  C16 UNL     1       0.695  31.286  16.172  0.00  0.00    -0.043 A
ATOM     35  H9  UNL     1       3.133  29.265  17.426  0.00  0.00     0.063 H 
ATOM     36  H10 UNL     1       4.428  30.375  15.652  0.00  0.00     0.062 H 
ATOM     37  H11 UNL     1       3.366  32.062  14.209  0.00  0.00     0.063 H 
ATOM     38  H12 UNL     1      -0.344  31.540  16.325  0.00  0.00     0.064 H 
BRANCH 19 21
ATOM     21  C17 UNL     1       0.774  32.940  14.299  0.00  0.00     0.000 A
ATOM     22  C18 UNL     1       0.077  34.003  14.884  0.00  0.00    -0.051 A
ATOM     23  C19 UNL     1      -0.547  34.945  14.068  0.00  0.00    -0.043 A
ATOM     24  C20 UNL     1      -0.441  34.832  12.683  0.00  0.00     0.027 A
ATOM     25  N3  UNL     1       0.251  33.814  12.144  0.00  0.00    -0.264 NA
ATOM     26  C21 UNL     1       0.849  32.880  12.905  0.00  0.00     0.035 A
ATOM     39  H13 UNL     1       0.003  34.102  15.957  0.00  0.00     0.063 H 
ATOM     40  H14 UNL     1      -1.112  35.740  14.522  0.00  0.00     0.064 H 
ATOM     41  H15 UNL     1      -0.901  35.537  12.008  0.00  0.00     0.084 H 
ATOM     42  H16 UNL     1       1.381  32.099  12.384  0.00  0.00     0.085 H 
ENDBRANCH 19 21
ENDBRANCH 13 15
BRANCH 10 9
ATOM      9  N1  UNL     1       0.522  28.040  21.075  0.00  0.00    -0.306 N
ATOM     27  H1  UNL     1       1.128  28.454  21.770  0.00  0.00     0.171 HD
BRANCH 9 8
ATOM      3  C2  UNL     1       1.048  25.767  20.383  0.00  0.00     0.142 A
ATOM      4  C3  UNL     1       0.766  24.394  20.450  0.00  0.00    -0.018 A
ATOM      5  C4  UNL     1      -0.219  23.905  21.313  0.00  0.00    -0.058 A
ATOM      6  C5  UNL     1      -0.952  24.748  22.147  0.00  0.00    -0.060 A
ATOM      7  C6  UNL     1      -0.685  26.131  22.111  0.00  0.00    -0.035 A
ATOM      8  C7  UNL     1       0.303  26.693  21.260  0.00  0.00     0.085 A
ATOM     28  H2  UNL     1       1.301  23.690  19.829  0.00  0.00     0.066 H 
ATOM     29  H3  UNL     1      -0.402  22.839  21.329  0.00  0.00     0.062 H 
ATOM     30  H4  UNL     1      -1.243  26.773  22.775  0.00  0.00     0.065 H 
ATOM     43  H17 UNL     1      -1.705  24.338  22.803  0.00  0.00     0.062 H 
BRANCH 3 2
ATOM      2  O1  UNL     1       1.996  26.302  19.546  0.00  0.00    -0.495 OA
BRANCH 2 1
ATOM      1  C1  UNL     1       2.920  25.509  18.803  0.00  0.00     0.078 C
ATOM     31  H5  UNL     1       3.546  26.157  18.192  0.00  0.00     0.067 H 
ATOM     32  H6  UNL     1       3.581  24.947  19.465  0.00  0.00     0.067 H 
ATOM     34  H8  UNL     1       2.400  24.814  18.143  0.00  0.00     0.067 H 
ENDBRANCH 2 1
ENDBRANCH 3 2
ENDBRANCH 9 8
ENDBRANCH 10 9
TORSDOF 6
ENDMDL
MODEL 7
REMARK WATVina v2023-04-05
REMARK WATVINA RESULT:      -6.2
REMARK SCOREN: vdw     :hbond   :elec    :desol   :intra   :torsion  
REMARK SCOREV: -34.82  :-0.59   :-1.41   :0.25    :-0.58   :0.54    
REMARK  Name = test02
REMARK  6 active torsions:
REMARK  status: ('A' for Active; 'I' for Inactive)
REMARK    1  A    between atoms: _1  and  _2
REMARK    2  A    between atoms: _2  and  _3
REMARK    3  A    between atoms: _8  and  _9
REMARK    4  A    between atoms: _9  and  _10
REMARK    5  A    between atoms: _13  and  _15
REMARK    6  A    between atoms: _19  and  _21
ROOT
ATOM     10  C8  UNL     1       1.638  32.051  14.700  0.00  0.00     0.299 A
ATOM     11  N2  UNL     1       2.991  32.105  14.657  0.00  0.00    -0.201 NA
ATOM     12  C9  UNL     1       3.395  31.226  15.620  0.00  0.00     0.076 A
ATOM     13  C10 UNL     1       2.255  30.655  16.199  0.00  0.00     0.156 A
ATOM     14  O2  UNL     1       1.163  31.218  15.637  0.00  0.00    -0.423 O
ATOM     33  H7  UNL     1       4.429  31.025  15.855  0.00  0.00     0.088 H 
ENDROOT
BRANCH 13 15
ATOM     15  C11 UNL     1       2.096  29.693  17.302  0.00  0.00     0.020 A
ATOM     16  C12 UNL     1       2.599  28.389  17.162  0.00  0.00    -0.051 A
ATOM     17  C13 UNL     1       2.409  27.464  18.179  0.00  0.00    -0.061 A
ATOM     18  C14 UNL     1       1.696  27.819  19.323  0.00  0.00    -0.054 A
ATOM     19  C15 UNL     1       1.163  29.112  19.450  0.00  0.00    -0.016 A
ATOM     20  C16 UNL     1       1.351  30.042  18.422  0.00  0.00    -0.043 A
ATOM     35  H9  UNL     1       3.150  28.101  16.278  0.00  0.00     0.063 H 
ATOM     36  H10 UNL     1       2.809  26.465  18.083  0.00  0.00     0.062 H 
ATOM     37  H11 UNL     1       1.545  27.087  20.102  0.00  0.00     0.063 H 
ATOM     38  H12 UNL     1       0.943  31.039  18.509  0.00  0.00     0.064 H 
BRANCH 19 21
ATOM     21  C17 UNL     1       0.386  29.503  20.665  0.00  0.00     0.000 A
ATOM     22  C18 UNL     1      -0.653  30.435  20.562  0.00  0.00    -0.051 A
ATOM     23  C19 UNL     1      -1.358  30.804  21.705  0.00  0.00    -0.043 A
ATOM     24  C20 UNL     1      -1.039  30.217  22.928  0.00  0.00     0.027 A
ATOM     25  N3  UNL     1      -0.050  29.309  22.999  0.00  0.00    -0.264 NA
ATOM     26  C21 UNL     1       0.660  28.946  21.917  0.00  0.00     0.035 A
ATOM     39  H13 UNL     1      -0.913  30.882  19.614  0.00  0.00     0.063 H 
ATOM     40  H14 UNL     1      -2.132  31.547  21.628  0.00  0.00     0.064 H 
ATOM     41  H15 UNL     1      -1.556  30.465  23.842  0.00  0.00     0.084 H 
ATOM     42  H16 UNL     1       1.435  28.211  22.069  0.00  0.00     0.085 H 
ENDBRANCH 19 21
ENDBRANCH 13 15
BRANCH 10 9
ATOM      9  N1  UNL     1       0.817  32.736  13.869  0.00  0.00    -0.306 N
ATOM     27  H1  UNL     1       0.951  32.697  12.867  0.00  0.00     0.171 HD
BRANCH 9 8
ATOM      3  C2  UNL     1      -0.028  34.983  13.472  0.00  0.00     0.142 A
ATOM      4  C3  UNL     1      -0.778  36.082  13.919  0.00  0.00    -0.018 A
ATOM      5  C4  UNL     1      -1.496  36.022  15.117  0.00  0.00    -0.058 A
ATOM      6  C5  UNL     1      -1.509  34.876  15.910  0.00  0.00    -0.060 A
ATOM      7  C6  UNL     1      -0.775  33.751  15.483  0.00  0.00    -0.035 A
ATOM      8  C7  UNL     1      -0.027  33.744  14.277  0.00  0.00     0.085 A
ATOM     28  H2  UNL     1      -0.808  36.998  13.347  0.00  0.00     0.066 H 
ATOM     29  H3  UNL     1      -2.058  36.894  15.421  0.00  0.00     0.062 H 
ATOM     30  H4  UNL     1      -0.808  32.862  16.094  0.00  0.00     0.065 H 
ATOM     43  H17 UNL     1      -2.075  34.862  16.830  0.00  0.00     0.062 H 
BRANCH 3 2
ATOM      2  O1  UNL     1       0.703  34.992  12.310  0.00  0.00    -0.495 OA
BRANCH 2 1
ATOM      1  C1  UNL     1       0.666  36.065  11.371  0.00  0.00     0.078 C
ATOM     31  H5  UNL     1       1.057  35.724  10.414  0.00  0.00     0.067 H 
ATOM     32  H6  UNL     1      -0.356  36.409  11.202  0.00  0.00     0.067 H 
ATOM     34  H8  UNL     1       1.275  36.905  11.710  0.00  0.00     0.067 H 
ENDBRANCH 2 1
ENDBRANCH 3 2
ENDBRANCH 9 8
ENDBRANCH 10 9
TORSDOF 6
ENDMDL
MODEL 8
REMARK WATVina v2023-04-05
REMARK WATVINA RESULT:      -6.0
REMARK SCOREN: vdw     :hbond   :elec    :desol   :intra   :torsion  
REMARK SCOREV: -32.85  :-0.00   :-2.08   :-0.06   :-0.67   :0.85    
REMARK  Name = test02
REMARK  6 active torsions:
REMARK  status: ('A' for Active; 'I' for Inactive)
REMARK    1  A    between atoms: _1  and  _2
REMARK    2  A    between atoms: _2  and  _3
REMARK    3  A    between atoms: _8  and  _9
REMARK    4  A    between atoms: _9  and  _10
REMARK    5  A    between atoms: _13  and  _15
REMARK    6  A    between atoms: _19  and  _21
ROOT
ATOM     10  C8  UNL     1       1.013  30.384  18.506  0.00  0.00     0.299 A
ATOM     11  N2  UNL     1       1.929  30.099  17.549  0.00  0.00    -0.201 NA
ATOM     12  C9  UNL     1       1.709  31.038  16.582  0.00  0.00     0.076 A
ATOM     13  C10 UNL     1       0.669  31.873  17.009  0.00  0.00     0.156 A
ATOM     14  O2  UNL     1       0.218  31.419  18.199  0.00  0.00    -0.423 O
ATOM     33  H7  UNL     1       2.273  31.098  15.663  0.00  0.00     0.088 H 
ENDROOT
BRANCH 13 15
ATOM     15  C11 UNL     1      -0.005  33.007  16.356  0.00  0.00     0.020 A
ATOM     16  C12 UNL     1      -0.985  33.728  17.057  0.00  0.00    -0.051 A
ATOM     17  C13 UNL     1      -1.658  34.767  16.430  0.00  0.00    -0.061 A
ATOM     18  C14 UNL     1      -1.382  35.076  15.099  0.00  0.00    -0.054 A
ATOM     19  C15 UNL     1      -0.427  34.334  14.385  0.00  0.00    -0.016 A
ATOM     20  C16 UNL     1       0.247  33.284  15.018  0.00  0.00    -0.043 A
ATOM     35  H9  UNL     1      -1.209  33.496  18.089  0.00  0.00     0.063 H 
ATOM     36  H10 UNL     1      -2.399  35.336  16.971  0.00  0.00     0.062 H 
ATOM     37  H11 UNL     1      -1.920  35.879  14.619  0.00  0.00     0.063 H 
ATOM     38  H12 UNL     1       0.982  32.705  14.477  0.00  0.00     0.064 H 
BRANCH 19 21
ATOM     21  C17 UNL     1      -0.129  34.645  12.954  0.00  0.00     0.000 A
ATOM     22  C18 UNL     1       0.213  33.616  12.071  0.00  0.00    -0.051 A
ATOM     23  C19 UNL     1       0.505  33.921  10.743  0.00  0.00    -0.043 A
ATOM     24  C20 UNL     1       0.421  35.243  10.308  0.00  0.00     0.027 A
ATOM     25  N3  UNL     1       0.070  36.212  11.171  0.00  0.00    -0.264 NA
ATOM     26  C21 UNL     1      -0.200  35.950  12.461  0.00  0.00     0.035 A
ATOM     39  H13 UNL     1       0.266  32.588  12.399  0.00  0.00     0.063 H 
ATOM     40  H14 UNL     1       0.802  33.132  10.076  0.00  0.00     0.064 H 
ATOM     41  H15 UNL     1       0.632  35.532   9.290  0.00  0.00     0.084 H 
ATOM     42  H16 UNL     1      -0.472  36.792  13.080  0.00  0.00     0.085 H 
ENDBRANCH 19 21
ENDBRANCH 13 15
BRANCH 10 9
ATOM      9  N1  UNL     1       0.906  29.724  19.684  0.00  0.00    -0.306 N
ATOM     27  H1  UNL     1       1.676  29.715  20.339  0.00  0.00     0.171 HD
BRANCH 9 8
ATOM      3  C2  UNL     1       0.367  27.388  20.100  0.00  0.00     0.142 A
ATOM      4  C3  UNL     1      -0.604  26.387  20.258  0.00  0.00    -0.018 A
ATOM      5  C4  UNL     1      -1.966  26.704  20.261  0.00  0.00    -0.058 A
ATOM      6  C5  UNL     1      -2.417  28.015  20.120  0.00  0.00    -0.060 A
ATOM      7  C6  UNL     1      -1.466  29.043  19.970  0.00  0.00    -0.035 A
ATOM      8  C7  UNL     1      -0.069  28.792  19.961  0.00  0.00     0.085 A
ATOM     28  H2  UNL     1      -0.317  25.353  20.373  0.00  0.00     0.066 H 
ATOM     29  H3  UNL     1      -2.678  25.899  20.385  0.00  0.00     0.062 H 
ATOM     30  H4  UNL     1      -1.825  30.057  19.881  0.00  0.00     0.065 H 
ATOM     43  H17 UNL     1      -3.477  28.226  20.127  0.00  0.00     0.062 H 
BRANCH 3 2
ATOM      2  O1  UNL     1       1.716  27.131  20.079  0.00  0.00    -0.495 OA
BRANCH 2 1
ATOM      1  C1  UNL     1       2.338  26.291  19.108  0.00  0.00     0.078 C
ATOM     31  H5  UNL     1       1.605  25.594  18.708  0.00  0.00     0.067 H 
ATOM     32  H6  UNL     1       2.725  26.873  18.271  0.00  0.00     0.067 H 
ATOM     34  H8  UNL     1       3.152  25.716  19.551  0.00  0.00     0.067 H 
ENDBRANCH 2 1
ENDBRANCH 3 2
ENDBRANCH 9 8
ENDBRANCH 10 9
TORSDOF 6
ENDMDL
MODEL 9
REMARK WATVina v2023-04-05
REMARK WATVINA RESULT:      -5.6
REMARK SCOREN: vdw     :hbond   :elec    :desol   :intra   :torsion  
REMARK SCOREV: -28.79  :-0.70   :-1.50   :-0.03   :-0.41   :0.55    
REMARK  Name = test02
REMARK  6 active torsions:
REMARK  status: ('A' for Active; 'I' for Inactive)
REMARK    1  A    between atoms: _1  and  _2
REMARK    2  A    between atoms: _2  and  _3
REMARK    3  A    between atoms: _8  and  _9
REMARK    4  A    between atoms: _9  and  _10
REMARK    5  A    between atoms: _13  and  _15
REMARK    6  A    between atoms: _19  and  _21
ROOT
ATOM     10  C8  UNL     1       2.554  23.481  21.223  0.00  0.00     0.299 A
ATOM     11  N2  UNL     1       2.599  22.917  19.992  0.00  0.00    -0.201 NA
ATOM     12  C9  UNL     1       2.150  23.898  19.155  0.00  0.00     0.076 A
ATOM     13  C10 UNL     1       1.868  25.035  19.923  0.00  0.00     0.156 A
ATOM     14  O2  UNL     1       2.087  24.737  21.222  0.00  0.00    -0.423 O
ATOM     33  H7  UNL     1       2.056  23.780  18.087  0.00  0.00     0.088 H 
ENDROOT
BRANCH 13 15
ATOM     15  C11 UNL     1       1.320  26.351  19.556  0.00  0.00     0.020 A
ATOM     16  C12 UNL     1       0.050  26.727  20.023  0.00  0.00    -0.051 A
ATOM     17  C13 UNL     1      -0.491  27.947  19.640  0.00  0.00    -0.061 A
ATOM     18  C14 UNL     1       0.211  28.782  18.773  0.00  0.00    -0.054 A
ATOM     19  C15 UNL     1       1.466  28.392  18.277  0.00  0.00    -0.016 A
ATOM     20  C16 UNL     1       2.008  27.161  18.660  0.00  0.00    -0.043 A
ATOM     35  H9  UNL     1      -0.504  26.086  20.693  0.00  0.00     0.063 H 
ATOM     36  H10 UNL     1      -1.460  28.248  20.011  0.00  0.00     0.062 H 
ATOM     37  H11 UNL     1      -0.227  29.723  18.473  0.00  0.00     0.063 H 
ATOM     38  H12 UNL     1       2.972  26.850  18.283  0.00  0.00     0.064 H 
BRANCH 19 21
ATOM     21  C17 UNL     1       2.224  29.271  17.337  0.00  0.00     0.000 A
ATOM     22  C18 UNL     1       1.853  30.610  17.177  0.00  0.00    -0.051 A
ATOM     23  C19 UNL     1       2.558  31.414  16.283  0.00  0.00    -0.043 A
ATOM     24  C20 UNL     1       3.640  30.881  15.586  0.00  0.00     0.027 A
ATOM     25  N3  UNL     1       3.990  29.596  15.771  0.00  0.00    -0.264 NA
ATOM     26  C21 UNL     1       3.318  28.791  16.612  0.00  0.00     0.035 A
ATOM     39  H13 UNL     1       1.024  31.032  17.726  0.00  0.00     0.063 H 
ATOM     40  H14 UNL     1       2.247  32.434  16.137  0.00  0.00     0.064 H 
ATOM     41  H15 UNL     1       4.221  31.461  14.886  0.00  0.00     0.084 H 
ATOM     42  H16 UNL     1       3.671  27.775  16.696  0.00  0.00     0.085 H 
ENDBRANCH 19 21
ENDBRANCH 13 15
BRANCH 10 9
ATOM      9  N1  UNL     1       2.964  22.870  22.361  0.00  0.00    -0.306 N
ATOM     27  H1  UNL     1       3.071  21.864  22.394  0.00  0.00     0.171 HD
BRANCH 9 8
ATOM      3  C2  UNL     1       3.954  22.970  24.581  0.00  0.00     0.142 A
ATOM      4  C3  UNL     1       3.916  23.464  25.894  0.00  0.00    -0.018 A
ATOM      5  C4  UNL     1       2.949  24.396  26.282  0.00  0.00    -0.058 A
ATOM      6  C5  UNL     1       1.995  24.882  25.389  0.00  0.00    -0.060 A
ATOM      7  C6  UNL     1       2.014  24.414  24.060  0.00  0.00    -0.035 A
ATOM      8  C7  UNL     1       2.969  23.470  23.600  0.00  0.00     0.085 A
ATOM     28  H2  UNL     1       4.629  23.126  26.631  0.00  0.00     0.066 H 
ATOM     29  H3  UNL     1       2.958  24.747  27.304  0.00  0.00     0.062 H 
ATOM     30  H4  UNL     1       1.284  24.811  23.372  0.00  0.00     0.065 H 
ATOM     43  H17 UNL     1       1.262  25.602  25.720  0.00  0.00     0.062 H 
BRANCH 3 2
ATOM      2  O1  UNL     1       4.875  22.047  24.150  0.00  0.00    -0.495 OA
BRANCH 2 1
ATOM      1  C1  UNL     1       5.579  21.174  25.031  0.00  0.00     0.078 C
ATOM     31  H5  UNL     1       6.292  20.580  24.462  0.00  0.00     0.067 H 
ATOM     32  H6  UNL     1       6.144  21.735  25.777  0.00  0.00     0.067 H 
ATOM     34  H8  UNL     1       4.895  20.493  25.539  0.00  0.00     0.067 H 
ENDBRANCH 2 1
ENDBRANCH 3 2
ENDBRANCH 9 8
ENDBRANCH 10 9
TORSDOF 6
ENDMDL
MODEL 10
REMARK WATVina v2023-04-05
REMARK WATVINA RESULT:      -5.5
REMARK SCOREN: vdw     :hbond   :elec    :desol   :intra   :torsion  
REMARK SCOREV: -28.87  :-0.31   :-1.47   :0.15    :-0.60   :0.32    
REMARK  Name = test02
REMARK  6 active torsions:
REMARK  status: ('A' for Active; 'I' for Inactive)
REMARK    1  A    between atoms: _1  and  _2
REMARK    2  A    between atoms: _2  and  _3
REMARK    3  A    between atoms: _8  and  _9
REMARK    4  A    between atoms: _9  and  _10
REMARK    5  A    between atoms: _13  and  _15
REMARK    6  A    between atoms: _19  and  _21
ROOT
ATOM     10  C8  UNL     1      -4.387  33.342  18.760  0.00  0.00     0.299 A
ATOM     11  N2  UNL     1      -4.593  32.091  18.280  0.00  0.00    -0.201 NA
ATOM     12  C9  UNL     1      -3.608  31.920  17.350  0.00  0.00     0.076 A
ATOM     13  C10 UNL     1      -2.826  33.082  17.320  0.00  0.00     0.156 A
ATOM     14  O2  UNL     1      -3.358  33.977  18.181  0.00  0.00    -0.423 O
ATOM     33  H7  UNL     1      -3.482  31.021  16.768  0.00  0.00     0.088 H 
ENDROOT
BRANCH 13 15
ATOM     15  C11 UNL     1      -1.676  33.464  16.485  0.00  0.00     0.020 A
ATOM     16  C12 UNL     1      -1.793  34.545  15.596  0.00  0.00    -0.051 A
ATOM     17  C13 UNL     1      -0.728  34.880  14.773  0.00  0.00    -0.061 A
ATOM     18  C14 UNL     1       0.445  34.127  14.806  0.00  0.00    -0.054 A
ATOM     19  C15 UNL     1       0.552  33.024  15.669  0.00  0.00    -0.016 A
ATOM     20  C16 UNL     1      -0.525  32.685  16.496  0.00  0.00    -0.043 A
ATOM     35  H9  UNL     1      -2.699  35.134  15.560  0.00  0.00     0.063 H 
ATOM     36  H10 UNL     1      -0.807  35.721  14.100  0.00  0.00     0.062 H 
ATOM     37  H11 UNL     1       1.262  34.389  14.151  0.00  0.00     0.063 H 
ATOM     38  H12 UNL     1      -0.454  31.837  17.162  0.00  0.00     0.064 H 
BRANCH 19 21
ATOM     21  C17 UNL     1       1.797  32.199  15.707  0.00  0.00     0.000 A
ATOM     22  C18 UNL     1       1.715  30.813  15.875  0.00  0.00    -0.051 A
ATOM     23  C19 UNL     1       2.885  30.059  15.926  0.00  0.00    -0.043 A
ATOM     24  C20 UNL     1       4.118  30.691  15.777  0.00  0.00     0.027 A
ATOM     25  N3  UNL     1       4.171  32.023  15.596  0.00  0.00    -0.264 NA
ATOM     26  C21 UNL     1       3.061  32.779  15.561  0.00  0.00     0.035 A
ATOM     39  H13 UNL     1       0.762  30.316  15.977  0.00  0.00     0.063 H 
ATOM     40  H14 UNL     1       2.819  28.998  16.091  0.00  0.00     0.064 H 
ATOM     41  H15 UNL     1       5.053  30.153  15.805  0.00  0.00     0.084 H 
ATOM     42  H16 UNL     1       3.201  33.839  15.412  0.00  0.00     0.085 H 
ENDBRANCH 19 21
ENDBRANCH 13 15
BRANCH 10 9
ATOM      9  N1  UNL     1      -5.114  33.912  19.751  0.00  0.00    -0.306 N
ATOM     27  H1  UNL     1      -6.121  33.972  19.678  0.00  0.00     0.171 HD
BRANCH 9 8
ATOM      3  C2  UNL     1      -4.963  36.129  20.741  0.00  0.00     0.142 A
ATOM      4  C3  UNL     1      -4.349  36.998  21.655  0.00  0.00    -0.018 A
ATOM      5  C4  UNL     1      -3.371  36.534  22.541  0.00  0.00    -0.058 A
ATOM      6  C5  UNL     1      -2.974  35.198  22.565  0.00  0.00    -0.060 A
ATOM      7  C6  UNL     1      -3.580  34.298  21.666  0.00  0.00    -0.035 A
ATOM      8  C7  UNL     1      -4.580  34.702  20.743  0.00  0.00     0.085 A
ATOM     28  H2  UNL     1      -4.615  38.045  21.686  0.00  0.00     0.066 H 
ATOM     29  H3  UNL     1      -2.925  37.241  23.227  0.00  0.00     0.062 H 
ATOM     30  H4  UNL     1      -3.280  33.262  21.707  0.00  0.00     0.065 H 
ATOM     43  H17 UNL     1      -2.217  34.872  23.262  0.00  0.00     0.062 H 
BRANCH 3 2
ATOM      2  O1  UNL     1      -5.919  36.534  19.843  0.00  0.00    -0.495 OA
BRANCH 2 1
ATOM      1  C1  UNL     1      -6.530  37.822  19.877  0.00  0.00     0.078 C
ATOM     31  H5  UNL     1      -7.103  37.978  18.965  0.00  0.00     0.067 H 
ATOM     32  H6  UNL     1      -7.222  37.910  20.716  0.00  0.00     0.067 H 
ATOM     34  H8  UNL     1      -5.779  38.611  19.948  0.00  0.00     0.067 H 
ENDBRANCH 2 1
ENDBRANCH 3 2
ENDBRANCH 9 8
ENDBRANCH 10 9
TORSDOF 6
ENDMDL
MODEL 11
REMARK WATVina v2023-04-05
REMARK WATVINA RESULT:      -5.3
REMARK SCOREN: vdw     :hbond   :elec    :desol   :intra   :torsion  
REMARK SCOREV: -25.92  :-0.22   :-1.57   :0.17    :-0.72   :0.13    
REMARK  Name = test02
REMARK  6 active torsions:
REMARK  status: ('A' for Active; 'I' for Inactive)
REMARK    1  A    between atoms: _1  and  _2
REMARK    2  A    between atoms: _2  and  _3
REMARK    3  A    between atoms: _8  and  _9
REMARK    4  A    between atoms: _9  and  _10
REMARK    5  A    between atoms: _13  and  _15
REMARK    6  A    between atoms: _19  and  _21
ROOT
ATOM     10  C8  UNL     1      -1.062  30.480  18.522  0.00  0.00     0.299 A
ATOM     11  N2  UNL     1      -0.032  29.974  17.802  0.00  0.00    -0.201 NA
ATOM     12  C9  UNL     1       0.221  30.927  16.857  0.00  0.00     0.076 A
ATOM     13  C10 UNL     1      -0.666  31.992  17.060  0.00  0.00     0.156 A
ATOM     14  O2  UNL     1      -1.490  31.672  18.082  0.00  0.00    -0.423 O
ATOM     33  H7  UNL     1       0.991  30.840  16.107  0.00  0.00     0.088 H 
ENDROOT
BRANCH 13 15
ATOM     15  C11 UNL     1      -0.872  33.247  16.319  0.00  0.00     0.020 A
ATOM     16  C12 UNL     1      -1.624  34.280  16.902  0.00  0.00    -0.051 A
ATOM     17  C13 UNL     1      -1.861  35.447  16.189  0.00  0.00    -0.061 A
ATOM     18  C14 UNL     1      -1.381  35.581  14.887  0.00  0.00    -0.054 A
ATOM     19  C15 UNL     1      -0.659  34.535  14.290  0.00  0.00    -0.016 A
ATOM     20  C16 UNL     1      -0.423  33.358  15.009  0.00  0.00    -0.043 A
ATOM     35  H9  UNL     1      -2.004  34.186  17.910  0.00  0.00     0.063 H 
ATOM     36  H10 UNL     1      -2.424  36.251  16.639  0.00  0.00     0.062 H 
ATOM     37  H11 UNL     1      -1.583  36.488  14.338  0.00  0.00     0.063 H 
ATOM     38  H12 UNL     1       0.129  32.546  14.557  0.00  0.00     0.064 H 
BRANCH 19 21
ATOM     21  C17 UNL     1      -0.148  34.658  12.891  0.00  0.00     0.000 A
ATOM     22  C18 UNL     1       0.510  35.824  12.486  0.00  0.00    -0.051 A
ATOM     23  C19 UNL     1       0.965  35.934  11.174  0.00  0.00    -0.043 A
ATOM     24  C20 UNL     1       0.786  34.868  10.294  0.00  0.00     0.027 A
ATOM     25  N3  UNL     1       0.168  33.749  10.711  0.00  0.00    -0.264 NA
ATOM     26  C21 UNL     1      -0.298  33.622  11.966  0.00  0.00     0.035 A
ATOM     39  H13 UNL     1       0.664  36.648  13.168  0.00  0.00     0.063 H 
ATOM     40  H14 UNL     1       1.439  36.846  10.857  0.00  0.00     0.064 H 
ATOM     41  H15 UNL     1       1.124  34.900   9.269  0.00  0.00     0.084 H 
ATOM     42  H16 UNL     1      -0.780  32.688  12.211  0.00  0.00     0.085 H 
ENDBRANCH 19 21
ENDBRANCH 13 15
BRANCH 10 9
ATOM      9  N1  UNL     1      -1.608  29.878  19.605  0.00  0.00    -0.306 N
ATOM     27  H1  UNL     1      -1.297  28.960  19.894  0.00  0.00     0.171 HD
BRANCH 9 8
ATOM      3  C2  UNL     1      -2.723  30.627  21.634  0.00  0.00     0.142 A
ATOM      4  C3  UNL     1      -3.916  30.921  22.312  0.00  0.00    -0.018 A
ATOM      5  C4  UNL     1      -5.148  30.864  21.654  0.00  0.00    -0.058 A
ATOM      6  C5  UNL     1      -5.248  30.528  20.305  0.00  0.00    -0.060 A
ATOM      7  C6  UNL     1      -4.067  30.238  19.594  0.00  0.00    -0.035 A
ATOM      8  C7  UNL     1      -2.784  30.279  20.200  0.00  0.00     0.085 A
ATOM     28  H2  UNL     1      -3.904  31.190  23.359  0.00  0.00     0.066 H 
ATOM     29  H3  UNL     1      -6.041  31.098  22.218  0.00  0.00     0.062 H 
ATOM     30  H4  UNL     1      -4.152  29.998  18.545  0.00  0.00     0.065 H 
ATOM     43  H17 UNL     1      -6.215  30.494  19.826  0.00  0.00     0.062 H 
BRANCH 3 2
ATOM      2  O1  UNL     1      -1.489  30.657  22.234  0.00  0.00    -0.495 OA
BRANCH 2 1
ATOM      1  C1  UNL     1      -0.672  31.825  22.287  0.00  0.00     0.078 C
ATOM     31  H5  UNL     1      -1.170  32.641  21.766  0.00  0.00     0.067 H 
ATOM     32  H6  UNL     1      -0.508  32.148  23.316  0.00  0.00     0.067 H 
ATOM     34  H8  UNL     1       0.293  31.652  21.808  0.00  0.00     0.067 H 
ENDBRANCH 2 1
ENDBRANCH 3 2
ENDBRANCH 9 8
ENDBRANCH 10 9
TORSDOF 6
ENDMDL
MODEL 12
REMARK WATVina v2023-04-05
REMARK WATVINA RESULT:      -5.1
REMARK SCOREN: vdw     :hbond   :elec    :desol   :intra   :torsion  
REMARK SCOREV: -31.39  :-0.01   :-1.25   :0.18    :-0.56   :0.97    
REMARK  Name = test02
REMARK  6 active torsions:
REMARK  status: ('A' for Active; 'I' for Inactive)
REMARK    1  A    between atoms: _1  and  _2
REMARK    2  A    between atoms: _2  and  _3
REMARK    3  A    between atoms: _8  and  _9
REMARK    4  A    between atoms: _9  and  _10
REMARK    5  A    between atoms: _13  and  _15
REMARK    6  A    between atoms: _19  and  _21
ROOT
ATOM     10  C8  UNL     1       0.554  32.241  15.403  0.00  0.00     0.299 A
ATOM     11  N2  UNL     1       1.779  31.816  15.011  0.00  0.00    -0.201 NA
ATOM     12  C9  UNL     1       2.156  30.933  15.981  0.00  0.00     0.076 A
ATOM     13  C10 UNL     1       1.121  30.844  16.921  0.00  0.00     0.156 A
ATOM     14  O2  UNL     1       0.144  31.706  16.562  0.00  0.00    -0.423 O
ATOM     33  H7  UNL     1       3.097  30.404  15.979  0.00  0.00     0.088 H 
ENDROOT
BRANCH 13 15
ATOM     15  C11 UNL     1       1.006  30.091  18.180  0.00  0.00     0.020 A
ATOM     16  C12 UNL     1       0.581  30.749  19.345  0.00  0.00    -0.051 A
ATOM     17  C13 UNL     1       0.517  30.055  20.545  0.00  0.00    -0.061 A
ATOM     18  C14 UNL     1       0.901  28.716  20.600  0.00  0.00    -0.054 A
ATOM     19  C15 UNL     1       1.359  28.065  19.443  0.00  0.00    -0.016 A
ATOM     20  C16 UNL     1       1.427  28.767  18.235  0.00  0.00    -0.043 A
ATOM     35  H9  UNL     1       0.284  31.788  19.316  0.00  0.00     0.063 H 
ATOM     36  H10 UNL     1       0.174  30.552  21.440  0.00  0.00     0.062 H 
ATOM     37  H11 UNL     1       0.858  28.190  21.542  0.00  0.00     0.063 H 
ATOM     38  H12 UNL     1       1.781  28.276  17.339  0.00  0.00     0.064 H 
BRANCH 19 21
ATOM     21  C17 UNL     1       1.786  26.634  19.488  0.00  0.00     0.000 A
ATOM     22  C18 UNL     1       1.201  25.757  20.407  0.00  0.00    -0.051 A
ATOM     23  C19 UNL     1       1.621  24.429  20.451  0.00  0.00    -0.043 A
ATOM     24  C20 UNL     1       2.595  23.987  19.558  0.00  0.00     0.027 A
ATOM     25  N3  UNL     1       3.129  24.844  18.669  0.00  0.00    -0.264 NA
ATOM     26  C21 UNL     1       2.757  26.134  18.615  0.00  0.00     0.035 A
ATOM     39  H13 UNL     1       0.436  26.091  21.092  0.00  0.00     0.063 H 
ATOM     40  H14 UNL     1       1.194  23.767  21.183  0.00  0.00     0.064 H 
ATOM     41  H15 UNL     1       2.952  22.969  19.547  0.00  0.00     0.084 H 
ATOM     42  H16 UNL     1       3.240  26.747  17.870  0.00  0.00     0.085 H 
ENDBRANCH 19 21
ENDBRANCH 13 15
BRANCH 10 9
ATOM      9  N1  UNL     1      -0.221  33.100  14.698  0.00  0.00    -0.306 N
ATOM     27  H1  UNL     1      -1.190  33.243  14.950  0.00  0.00     0.171 HD
BRANCH 9 8
ATOM      3  C2  UNL     1       0.005  35.057  13.270  0.00  0.00     0.142 A
ATOM      4  C3  UNL     1       0.210  35.595  11.990  0.00  0.00    -0.018 A
ATOM      5  C4  UNL     1       0.485  34.765  10.899  0.00  0.00    -0.058 A
ATOM      6  C5  UNL     1       0.578  33.381  11.033  0.00  0.00    -0.060 A
ATOM      7  C6  UNL     1       0.388  32.811  12.307  0.00  0.00    -0.035 A
ATOM      8  C7  UNL     1       0.109  33.595  13.457  0.00  0.00     0.085 A
ATOM     28  H2  UNL     1       0.152  36.660  11.824  0.00  0.00     0.066 H 
ATOM     29  H3  UNL     1       0.635  35.224   9.932  0.00  0.00     0.062 H 
ATOM     30  H4  UNL     1       0.482  31.740  12.403  0.00  0.00     0.065 H 
ATOM     43  H17 UNL     1       0.793  32.768  10.170  0.00  0.00     0.062 H 
BRANCH 3 2
ATOM      2  O1  UNL     1      -0.278  35.825  14.373  0.00  0.00    -0.495 OA
BRANCH 2 1
ATOM      1  C1  UNL     1      -1.582  35.925  14.943  0.00  0.00     0.078 C
ATOM     31  H5  UNL     1      -1.499  36.046  16.021  0.00  0.00     0.067 H 
ATOM     32  H6  UNL     1      -2.117  36.795  14.557  0.00  0.00     0.067 H 
ATOM     34  H8  UNL     1      -2.168  35.027  14.743  0.00  0.00     0.067 H 
ENDBRANCH 2 1
ENDBRANCH 3 2
ENDBRANCH 9 8
ENDBRANCH 10 9
TORSDOF 6
ENDMDL
