MODEL 1
REMARK WATVina v2023.12.13
REMARK WATVINA RESULT:      -8.1
REMARK SCOREN: vdw     :hbond   :elec    :desol   :clash   :torsion  
REMARK SCOREV: -38.42  :-1.62   :-2.67   :0.00    :0.21    :0.06    
REMARK  Name = test02
REMARK  6 active torsions:
REMARK  status: ('A' for Active; 'I' for Inactive)
REMARK    1  A    between atoms: _1  and  _2
REMARK    2  A    between atoms: _2  and  _3
REMARK    3  A    between atoms: _8  and  _9
REMARK    4  A    between atoms: _9  and  _10
REMARK    5  A    between atoms: _13  and  _15
REMARK    6  A    between atoms: _19  and  _21
ROOT
ATOM     10  C8  UNL     1       2.904  29.011  17.343  0.00 -0.34     0.299 A
ATOM     11  N2  UNL     1       3.891  29.376  16.489  0.00 -0.77    -0.201 NA
ATOM     12  C9  UNL     1       3.400  30.486  15.863  0.00 -0.45     0.076 A
ATOM     13  C10 UNL     1       2.130  30.759  16.385  0.00 -0.26     0.156 A
ATOM     14  O2  UNL     1       1.820  29.797  17.281  0.00 -0.17    -0.423 O
ATOM     33  H7  UNL     1       3.939  31.037  15.107  0.00 -0.13     0.088 H 
ENDROOT
BRANCH 13 15
ATOM     15  C11 UNL     1       1.137  31.793  16.050  0.00 -0.25     0.020 A
ATOM     16  C12 UNL     1       0.113  32.092  16.963  0.00 -0.20    -0.051 A
ATOM     17  C13 UNL     1      -0.854  33.032  16.631  0.00 -0.19    -0.061 A
ATOM     18  C14 UNL     1      -0.824  33.655  15.385  0.00 -0.19    -0.054 A
ATOM     19  C15 UNL     1       0.179  33.332  14.457  0.00 -0.27    -0.016 A
ATOM     20  C16 UNL     1       1.150  32.382  14.790  0.00 -0.29    -0.043 A
ATOM     35  H9  UNL     1       0.078  31.613  17.930  0.00 -0.03     0.063 H 
ATOM     36  H10 UNL     1      -1.633  33.278  17.337  0.00 -0.03     0.062 H 
ATOM     37  H11 UNL     1      -1.589  34.375  15.134  0.00 -0.07     0.063 H 
ATOM     38  H12 UNL     1       1.925  32.124  14.083  0.00 -0.07     0.064 H 
BRANCH 19 21
ATOM     21  C17 UNL     1       0.216  33.982  13.112  0.00 -0.39     0.000 A
ATOM     22  C18 UNL     1       0.471  33.216  11.970  0.00 -0.27    -0.051 A
ATOM     23  C19 UNL     1       0.520  33.838  10.724  0.00 -0.31    -0.043 A
ATOM     24  C20 UNL     1       0.283  35.208  10.631  0.00 -0.47     0.027 A
ATOM     25  N3  UNL     1       0.021  35.921  11.740  0.00 -0.81    -0.264 NA
ATOM     26  C21 UNL     1      -0.015  35.352  12.958  0.00 -0.40     0.035 A
ATOM     39  H13 UNL     1       0.641  32.151  12.035  0.00 -0.13     0.063 H 
ATOM     40  H14 UNL     1       0.751  33.251   9.853  0.00 -0.12     0.064 H 
ATOM     41  H15 UNL     1       0.305  35.737   9.690  0.00 -0.10     0.084 H 
ATOM     42  H16 UNL     1      -0.233  36.003  13.790  0.00 -0.09     0.085 H 
ENDBRANCH 19 21
ENDBRANCH 13 15
BRANCH 10 9
ATOM      9  N1  UNL     1       2.988  27.973  18.211  0.00 -0.35    -0.306 N
ATOM     27  H1  UNL     1       3.653  27.227  18.057  0.00 -0.42     0.171 HD
BRANCH 9 8
ATOM      3  C2  UNL     1       1.757  26.247  19.403  0.00 -0.22     0.142 A
ATOM      4  C3  UNL     1       0.704  25.895  20.262  0.00 -0.15    -0.018 A
ATOM      5  C4  UNL     1      -0.096  26.877  20.855  0.00 -0.13    -0.058 A
ATOM      6  C5  UNL     1       0.121  28.236  20.633  0.00 -0.15    -0.060 A
ATOM      7  C6  UNL     1       1.177  28.621  19.784  0.00 -0.21    -0.035 A
ATOM      8  C7  UNL     1       2.029  27.677  19.152  0.00 -0.27     0.085 A
ATOM     28  H2  UNL     1       0.487  24.858  20.474  0.00 -0.02     0.066 H 
ATOM     29  H3  UNL     1      -0.896  26.558  21.508  0.00 -0.02     0.062 H 
ATOM     30  H4  UNL     1       1.349  29.676  19.635  0.00 -0.06     0.065 H 
ATOM     43  H17 UNL     1      -0.515  28.969  21.107  0.00 -0.02     0.062 H 
BRANCH 3 2
ATOM      2  O1  UNL     1       2.566  25.324  18.787  0.00 -0.15    -0.495 OA
BRANCH 2 1
ATOM      1  C1  UNL     1       2.503  23.924  19.055  0.00 -0.23     0.078 C
ATOM     31  H5  UNL     1       3.403  23.441  18.682  0.00 -0.06     0.067 H 
ATOM     32  H6  UNL     1       2.448  23.729  20.128  0.00 -0.03     0.067 H 
ATOM     34  H8  UNL     1       1.642  23.469  18.564  0.00 -0.05     0.067 H 
ENDBRANCH 2 1
ENDBRANCH 3 2
ENDBRANCH 9 8
ENDBRANCH 10 9
TORSDOF 6
ENDMDL
MODEL 2
REMARK WATVina v2023.12.13
REMARK WATVINA RESULT:      -7.8
REMARK SCOREN: vdw     :hbond   :elec    :desol   :clash   :torsion  
REMARK SCOREV: -35.79  :-1.63   :-3.17   :0.00    :0.20    :0.17    
REMARK  Name = test02
REMARK  6 active torsions:
REMARK  status: ('A' for Active; 'I' for Inactive)
REMARK    1  A    between atoms: _1  and  _2
REMARK    2  A    between atoms: _2  and  _3
REMARK    3  A    between atoms: _8  and  _9
REMARK    4  A    between atoms: _9  and  _10
REMARK    5  A    between atoms: _13  and  _15
REMARK    6  A    between atoms: _19  and  _21
ROOT
ATOM     10  C8  UNL     1       2.841  28.977  17.555  0.00 -0.32     0.299 A
ATOM     11  N2  UNL     1       3.741  29.198  16.567  0.00 -0.73    -0.201 NA
ATOM     12  C9  UNL     1       3.233  30.262  15.879  0.00 -0.43     0.076 A
ATOM     13  C10 UNL     1       2.041  30.657  16.499  0.00 -0.25     0.156 A
ATOM     14  O2  UNL     1       1.792  29.811  17.522  0.00 -0.17    -0.423 O
ATOM     33  H7  UNL     1       3.708  30.701  15.015  0.00 -0.11     0.088 H 
ENDROOT
BRANCH 13 15
ATOM     15  C11 UNL     1       1.063  31.704  16.160  0.00 -0.25     0.020 A
ATOM     16  C12 UNL     1       0.042  32.019  17.071  0.00 -0.19    -0.051 A
ATOM     17  C13 UNL     1      -0.911  32.971  16.736  0.00 -0.19    -0.061 A
ATOM     18  C14 UNL     1      -0.872  33.590  15.487  0.00 -0.17    -0.054 A
ATOM     19  C15 UNL     1       0.128  33.250  14.561  0.00 -0.24    -0.016 A
ATOM     20  C16 UNL     1       1.085  32.288  14.899  0.00 -0.28    -0.043 A
ATOM     35  H9  UNL     1       0.001  31.544  18.040  0.00 -0.03     0.063 H 
ATOM     36  H10 UNL     1      -1.687  33.230  17.440  0.00 -0.03     0.062 H 
ATOM     37  H11 UNL     1      -1.626  34.320  15.234  0.00 -0.07     0.063 H 
ATOM     38  H12 UNL     1       1.857  32.017  14.193  0.00 -0.07     0.064 H 
BRANCH 19 21
ATOM     21  C17 UNL     1       0.175  33.896  13.214  0.00 -0.39     0.000 A
ATOM     22  C18 UNL     1       0.454  33.128  12.079  0.00 -0.29    -0.051 A
ATOM     23  C19 UNL     1       0.512  33.745  10.832  0.00 -0.30    -0.043 A
ATOM     24  C20 UNL     1       0.260  35.112  10.729  0.00 -0.45     0.027 A
ATOM     25  N3  UNL     1      -0.027  35.826  11.832  0.00 -0.82    -0.264 NA
ATOM     26  C21 UNL     1      -0.072  35.261  13.051  0.00 -0.40     0.035 A
ATOM     39  H13 UNL     1       0.637  32.066  12.151  0.00 -0.11     0.063 H 
ATOM     40  H14 UNL     1       0.763  33.158   9.966  0.00 -0.17     0.064 H 
ATOM     41  H15 UNL     1       0.288  35.637   9.787  0.00 -0.12     0.084 H 
ATOM     42  H16 UNL     1      -0.309  35.913  13.878  0.00 -0.09     0.085 H 
ENDBRANCH 19 21
ENDBRANCH 13 15
BRANCH 10 9
ATOM      9  N1  UNL     1       2.975  28.033  18.517  0.00 -0.33    -0.306 N
ATOM     27  H1  UNL     1       3.875  27.610  18.700  0.00 -0.56     0.171 HD
BRANCH 9 8
ATOM      3  C2  UNL     1       1.024  28.144  19.967  0.00 -0.18     0.142 A
ATOM      4  C3  UNL     1       0.009  27.479  20.671  0.00 -0.14    -0.018 A
ATOM      5  C4  UNL     1      -0.143  26.093  20.570  0.00 -0.12    -0.058 A
ATOM      6  C5  UNL     1       0.689  25.317  19.764  0.00 -0.10    -0.060 A
ATOM      7  C6  UNL     1       1.710  25.958  19.036  0.00 -0.05    -0.035 A
ATOM      8  C7  UNL     1       1.919  27.361  19.091  0.00 -0.26     0.085 A
ATOM     28  H2  UNL     1      -0.668  28.025  21.312  0.00 -0.02     0.066 H 
ATOM     29  H3  UNL     1      -0.939  25.623  21.132  0.00 -0.01     0.062 H 
ATOM     30  H4  UNL     1       2.337  25.352  18.399  0.00 -0.08     0.065 H 
ATOM     43  H17 UNL     1       0.544  24.249  19.708  0.00 -0.03     0.062 H 
BRANCH 3 2
ATOM      2  O1  UNL     1       1.226  29.501  20.039  0.00 -0.16    -0.495 OA
BRANCH 2 1
ATOM      1  C1  UNL     1       0.306  30.397  20.660  0.00 -0.17     0.078 C
ATOM     31  H5  UNL     1       0.583  31.423  20.426  0.00 -0.04     0.067 H 
ATOM     32  H6  UNL     1      -0.709  30.241  20.290  0.00 -0.02     0.067 H 
ATOM     34  H8  UNL     1       0.314  30.279  21.744  0.00 -0.06     0.067 H 
ENDBRANCH 2 1
ENDBRANCH 3 2
ENDBRANCH 9 8
ENDBRANCH 10 9
TORSDOF 6
ENDMDL
MODEL 3
REMARK WATVina v2023.12.13
REMARK WATVINA RESULT:      -6.3
REMARK SCOREN: vdw     :hbond   :elec    :desol   :clash   :torsion  
REMARK SCOREV: -31.16  :-0.59   :-3.41   :0.00    :0.07    :0.12    
REMARK  Name = test02
REMARK  6 active torsions:
REMARK  status: ('A' for Active; 'I' for Inactive)
REMARK    1  A    between atoms: _1  and  _2
REMARK    2  A    between atoms: _2  and  _3
REMARK    3  A    between atoms: _8  and  _9
REMARK    4  A    between atoms: _9  and  _10
REMARK    5  A    between atoms: _13  and  _15
REMARK    6  A    between atoms: _19  and  _21
ROOT
ATOM     10  C8  UNL     1       1.296  29.752  18.594  0.00 -0.22     0.299 A
ATOM     11  N2  UNL     1       2.124  29.445  17.567  0.00 -0.16    -0.201 NA
ATOM     12  C9  UNL     1       1.857  30.394  16.622  0.00 -0.28     0.076 A
ATOM     13  C10 UNL     1       0.880  31.258  17.132  0.00 -0.20     0.156 A
ATOM     14  O2  UNL     1       0.511  30.812  18.353  0.00 -0.12    -0.423 O
ATOM     33  H7  UNL     1       2.349  30.441  15.663  0.00 -0.07     0.088 H 
ENDROOT
BRANCH 13 15
ATOM     15  C11 UNL     1       0.192  32.415  16.537  0.00 -0.21     0.020 A
ATOM     16  C12 UNL     1      -0.784  33.099  17.281  0.00 -0.17    -0.051 A
ATOM     17  C13 UNL     1      -1.470  34.160  16.707  0.00 -0.20    -0.061 A
ATOM     18  C14 UNL     1      -1.212  34.527  15.387  0.00 -0.26    -0.054 A
ATOM     19  C15 UNL     1      -0.262  33.822  14.630  0.00 -0.28    -0.016 A
ATOM     20  C16 UNL     1       0.425  32.750  15.208  0.00 -0.21    -0.043 A
ATOM     35  H9  UNL     1      -0.993  32.822  18.304  0.00 -0.02     0.063 H 
ATOM     36  H10 UNL     1      -2.208  34.701  17.281  0.00 -0.04     0.062 H 
ATOM     37  H11 UNL     1      -1.762  35.347  14.948  0.00 -0.09     0.063 H 
ATOM     38  H12 UNL     1       1.157  32.200  14.634  0.00 -0.07     0.064 H 
BRANCH 19 21
ATOM     21  C17 UNL     1       0.015  34.196  13.210  0.00 -0.40     0.000 A
ATOM     22  C18 UNL     1       0.273  33.200  12.262  0.00 -0.37    -0.051 A
ATOM     23  C19 UNL     1       0.548  33.563  10.945  0.00 -0.23    -0.043 A
ATOM     24  C20 UNL     1       0.529  34.910  10.585  0.00 -0.52     0.027 A
ATOM     25  N3  UNL     1       0.259  35.848  11.510  0.00 -0.80    -0.264 NA
ATOM     26  C21 UNL     1       0.008  35.529  12.792  0.00 -0.36     0.035 A
ATOM     39  H13 UNL     1       0.275  32.155  12.532  0.00 -0.05     0.063 H 
ATOM     40  H14 UNL     1       0.781  32.797  10.227  0.00 -0.16     0.064 H 
ATOM     41  H15 UNL     1       0.731  35.243   9.579  0.00 -0.11     0.084 H 
ATOM     42  H16 UNL     1      -0.199  36.348  13.463  0.00 -0.10     0.085 H 
ENDBRANCH 19 21
ENDBRANCH 13 15
BRANCH 10 9
ATOM      9  N1  UNL     1       1.262  29.090  19.775  0.00 -0.26    -0.306 N
ATOM     27  H1  UNL     1       1.843  28.276  19.925  0.00 -0.06     0.171 HD
BRANCH 9 8
ATOM      3  C2  UNL     1      -0.672  28.123  20.891  0.00 -0.11     0.142 A
ATOM      4  C3  UNL     1      -1.770  28.283  21.751  0.00 -0.07    -0.018 A
ATOM      5  C4  UNL     1      -1.988  29.493  22.417  0.00 -0.08    -0.058 A
ATOM      6  C5  UNL     1      -1.128  30.579  22.271  0.00 -0.14    -0.060 A
ATOM      7  C6  UNL     1      -0.010  30.446  21.424  0.00 -0.19    -0.035 A
ATOM      8  C7  UNL     1       0.271  29.247  20.719  0.00 -0.20     0.085 A
ATOM     28  H2  UNL     1      -2.471  27.477  21.906  0.00 -0.01     0.066 H 
ATOM     29  H3  UNL     1      -2.848  29.570  23.068  0.00 -0.01     0.062 H 
ATOM     30  H4  UNL     1       0.660  31.287  21.333  0.00 -0.02     0.065 H 
ATOM     43  H17 UNL     1      -1.325  31.500  22.801  0.00 -0.04     0.062 H 
BRANCH 3 2
ATOM      2  O1  UNL     1      -0.417  26.962  20.204  0.00 -0.09    -0.495 OA
BRANCH 2 1
ATOM      1  C1  UNL     1      -1.345  25.882  20.120  0.00 -0.11     0.078 C
ATOM     31  H5  UNL     1      -0.926  25.090  19.503  0.00 -0.03     0.067 H 
ATOM     32  H6  UNL     1      -1.548  25.457  21.104  0.00 -0.01     0.067 H 
ATOM     34  H8  UNL     1      -2.284  26.206  19.669  0.00 -0.05     0.067 H 
ENDBRANCH 2 1
ENDBRANCH 3 2
ENDBRANCH 9 8
ENDBRANCH 10 9
TORSDOF 6
ENDMDL
MODEL 4
REMARK WATVina v2023.12.13
REMARK WATVINA RESULT:      -6.2
REMARK SCOREN: vdw     :hbond   :elec    :desol   :clash   :torsion  
REMARK SCOREV: -33.58  :-0.97   :-1.51   :0.00    :0.24    :0.12    
REMARK  Name = test02
REMARK  6 active torsions:
REMARK  status: ('A' for Active; 'I' for Inactive)
REMARK    1  A    between atoms: _1  and  _2
REMARK    2  A    between atoms: _2  and  _3
REMARK    3  A    between atoms: _8  and  _9
REMARK    4  A    between atoms: _9  and  _10
REMARK    5  A    between atoms: _13  and  _15
REMARK    6  A    between atoms: _19  and  _21
ROOT
ATOM     10  C8  UNL     1       3.180  29.452  16.963  0.00 -0.28     0.299 A
ATOM     11  N2  UNL     1       4.121  29.739  16.032  0.00 -0.76    -0.201 NA
ATOM     12  C9  UNL     1       3.622  30.825  15.371  0.00 -0.38     0.076 A
ATOM     13  C10 UNL     1       2.394  31.165  15.951  0.00 -0.29     0.156 A
ATOM     14  O2  UNL     1       2.115  30.265  16.919  0.00 -0.18    -0.423 O
ATOM     33  H7  UNL     1       4.128  31.315  14.554  0.00 -0.17     0.088 H 
ENDROOT
BRANCH 13 15
ATOM     15  C11 UNL     1       1.410  32.207  15.615  0.00 -0.28     0.020 A
ATOM     16  C12 UNL     1       1.254  32.608  14.278  0.00 -0.28    -0.051 A
ATOM     17  C13 UNL     1       0.362  33.624  13.963  0.00 -0.33    -0.061 A
ATOM     18  C14 UNL     1      -0.354  34.264  14.973  0.00 -0.23    -0.054 A
ATOM     19  C15 UNL     1      -0.174  33.888  16.314  0.00 -0.14    -0.016 A
ATOM     20  C16 UNL     1       0.728  32.867  16.631  0.00 -0.22    -0.043 A
ATOM     35  H9  UNL     1       1.807  32.121  13.488  0.00  0.05     0.063 H 
ATOM     36  H10 UNL     1       0.226  33.924  12.935  0.00 -0.08     0.062 H 
ATOM     37  H11 UNL     1      -1.036  35.061  14.716  0.00 -0.07     0.063 H 
ATOM     38  H12 UNL     1       0.876  32.571  17.660  0.00 -0.05     0.064 H 
BRANCH 19 21
ATOM     21  C17 UNL     1      -0.926  34.573  17.409  0.00 -0.16     0.000 A
ATOM     22  C18 UNL     1      -0.380  34.645  18.695  0.00 -0.17    -0.051 A
ATOM     23  C19 UNL     1      -1.099  35.271  19.710  0.00 -0.15    -0.043 A
ATOM     24  C20 UNL     1      -2.337  35.844  19.423  0.00 -0.10     0.027 A
ATOM     25  N3  UNL     1      -2.832  35.781  18.174  0.00 -0.09    -0.264 NA
ATOM     26  C21 UNL     1      -2.169  35.167  17.178  0.00 -0.20     0.035 A
ATOM     39  H13 UNL     1       0.585  34.214  18.920  0.00 -0.05     0.063 H 
ATOM     40  H14 UNL     1      -0.692  35.293  20.705  0.00 -0.05     0.064 H 
ATOM     41  H15 UNL     1      -2.931  36.344  20.171  0.00 -0.01     0.084 H 
ATOM     42  H16 UNL     1      -2.645  35.165  16.210  0.00 -0.03     0.085 H 
ENDBRANCH 19 21
ENDBRANCH 13 15
BRANCH 10 9
ATOM      9  N1  UNL     1       3.289  28.464  17.884  0.00 -0.42    -0.306 N
ATOM     27  H1  UNL     1       3.929  27.695  17.738  0.00 -0.33     0.171 HD
BRANCH 9 8
ATOM      3  C2  UNL     1       2.052  26.839  19.206  0.00 -0.25     0.142 A
ATOM      4  C3  UNL     1       1.039  26.568  20.139  0.00 -0.16    -0.018 A
ATOM      5  C4  UNL     1       0.327  27.606  20.747  0.00 -0.15    -0.058 A
ATOM      6  C5  UNL     1       0.596  28.945  20.467  0.00 -0.19    -0.060 A
ATOM      7  C6  UNL     1       1.615  29.250  19.543  0.00 -0.23    -0.035 A
ATOM      8  C7  UNL     1       2.377  28.245  18.892  0.00 -0.34     0.085 A
ATOM     28  H2  UNL     1       0.785  25.550  20.398  0.00 -0.03     0.066 H 
ATOM     29  H3  UNL     1      -0.446  27.349  21.458  0.00 -0.02     0.062 H 
ATOM     30  H4  UNL     1       1.828  30.290  19.349  0.00 -0.06     0.065 H 
ATOM     43  H17 UNL     1       0.028  29.724  20.955  0.00 -0.04     0.062 H 
BRANCH 3 2
ATOM      2  O1  UNL     1       2.774  25.858  18.572  0.00 -0.18    -0.495 OA
BRANCH 2 1
ATOM      1  C1  UNL     1       2.770  24.493  18.985  0.00 -0.28     0.078 C
ATOM     31  H5  UNL     1       3.581  23.961  18.491  0.00 -0.04     0.067 H 
ATOM     32  H6  UNL     1       2.930  24.404  20.061  0.00 -0.06     0.067 H 
ATOM     34  H8  UNL     1       1.831  24.005  18.721  0.00 -0.05     0.067 H 
ENDBRANCH 2 1
ENDBRANCH 3 2
ENDBRANCH 9 8
ENDBRANCH 10 9
TORSDOF 6
ENDMDL
MODEL 5
REMARK WATVina v2023.12.13
REMARK WATVINA RESULT:      -5.8
REMARK SCOREN: vdw     :hbond   :elec    :desol   :clash   :torsion  
REMARK SCOREV: -29.83  :-0.60   :-2.97   :0.00    :0.03    :0.32    
REMARK  Name = test02
REMARK  6 active torsions:
REMARK  status: ('A' for Active; 'I' for Inactive)
REMARK    1  A    between atoms: _1  and  _2
REMARK    2  A    between atoms: _2  and  _3
REMARK    3  A    between atoms: _8  and  _9
REMARK    4  A    between atoms: _9  and  _10
REMARK    5  A    between atoms: _13  and  _15
REMARK    6  A    between atoms: _19  and  _21
ROOT
ATOM     10  C8  UNL     1      -2.982  34.899  18.904  0.00 -0.11     0.299 A
ATOM     11  N2  UNL     1      -3.597  33.706  19.089  0.00  0.03    -0.201 NA
ATOM     12  C9  UNL     1      -2.891  32.838  18.306  0.00 -0.16     0.076 A
ATOM     13  C10 UNL     1      -1.855  33.547  17.688  0.00 -0.14     0.156 A
ATOM     14  O2  UNL     1      -1.956  34.847  18.043  0.00 -0.08    -0.423 O
ATOM     33  H7  UNL     1      -3.120  31.787  18.217  0.00 -0.03     0.088 H 
ENDROOT
BRANCH 13 15
ATOM     15  C11 UNL     1      -0.828  33.132  16.717  0.00 -0.19     0.020 A
ATOM     16  C12 UNL     1       0.173  32.229  17.110  0.00 -0.19    -0.051 A
ATOM     17  C13 UNL     1       1.170  31.872  16.213  0.00 -0.25    -0.061 A
ATOM     18  C14 UNL     1       1.194  32.431  14.936  0.00 -0.30    -0.054 A
ATOM     19  C15 UNL     1       0.214  33.361  14.553  0.00 -0.28    -0.016 A
ATOM     20  C16 UNL     1      -0.788  33.723  15.460  0.00 -0.22    -0.043 A
ATOM     35  H9  UNL     1       0.165  31.792  18.098  0.00 -0.03     0.063 H 
ATOM     36  H10 UNL     1       1.931  31.165  16.505  0.00 -0.06     0.062 H 
ATOM     37  H11 UNL     1       1.982  32.155  14.252  0.00 -0.08     0.063 H 
ATOM     38  H12 UNL     1      -1.546  34.440  15.176  0.00 -0.07     0.064 H 
BRANCH 19 21
ATOM     21  C17 UNL     1       0.235  33.978  13.192  0.00 -0.39     0.000 A
ATOM     22  C18 UNL     1       0.499  33.188  12.069  0.00 -0.24    -0.051 A
ATOM     23  C19 UNL     1       0.533  33.779  10.808  0.00 -0.30    -0.043 A
ATOM     24  C20 UNL     1       0.272  35.142  10.681  0.00 -0.46     0.027 A
ATOM     25  N3  UNL     1       0.000  35.878  11.773  0.00 -0.82    -0.264 NA
ATOM     26  C21 UNL     1      -0.022  35.339  13.005  0.00 -0.40     0.035 A
ATOM     39  H13 UNL     1       0.689  32.129  12.160  0.00 -0.12     0.063 H 
ATOM     40  H14 UNL     1       0.772  33.175   9.951  0.00 -0.17     0.064 H 
ATOM     41  H15 UNL     1       0.282  35.648   9.728  0.00 -0.12     0.084 H 
ATOM     42  H16 UNL     1      -0.248  36.006  13.822  0.00 -0.09     0.085 H 
ENDBRANCH 19 21
ENDBRANCH 13 15
BRANCH 10 9
ATOM      9  N1  UNL     1      -3.329  36.045  19.537  0.00 -0.09    -0.306 N
ATOM     27  H1  UNL     1      -4.292  36.220  19.792  0.00 -0.01     0.171 HD
BRANCH 9 8
ATOM      3  C2  UNL     1      -2.931  38.333  18.810  0.00 -0.10     0.142 A
ATOM      4  C3  UNL     1      -2.079  39.446  18.755  0.00 -0.15    -0.018 A
ATOM      5  C4  UNL     1      -0.851  39.444  19.423  0.00 -0.23    -0.058 A
ATOM      6  C5  UNL     1      -0.426  38.351  20.178  0.00 -0.23    -0.060 A
ATOM      7  C6  UNL     1      -1.264  37.222  20.262  0.00 -0.14    -0.035 A
ATOM      8  C7  UNL     1      -2.524  37.160  19.610  0.00 -0.10     0.085 A
ATOM     28  H2  UNL     1      -2.353  40.323  18.187  0.00 -0.04     0.066 H 
ATOM     29  H3  UNL     1      -0.227  40.324  19.351  0.00 -0.07     0.062 H 
ATOM     30  H4  UNL     1      -0.935  36.390  20.865  0.00 -0.05     0.065 H 
ATOM     43  H17 UNL     1       0.528  38.382  20.683  0.00 -0.09     0.062 H 
BRANCH 3 2
ATOM      2  O1  UNL     1      -4.142  38.278  18.164  0.00 -0.05    -0.495 OA
BRANCH 2 1
ATOM      1  C1  UNL     1      -4.418  38.988  16.958  0.00 -0.14     0.078 C
ATOM     31  H5  UNL     1      -3.511  39.055  16.360  0.00 -0.05     0.067 H 
ATOM     32  H6  UNL     1      -5.167  38.470  16.357  0.00 -0.03     0.067 H 
ATOM     34  H8  UNL     1      -4.765  40.000  17.169  0.00 -0.01     0.067 H 
ENDBRANCH 2 1
ENDBRANCH 3 2
ENDBRANCH 9 8
ENDBRANCH 10 9
TORSDOF 6
ENDMDL
MODEL 6
REMARK WATVina v2023.12.13
REMARK WATVINA RESULT:      -5.8
REMARK SCOREN: vdw     :hbond   :elec    :desol   :clash   :torsion  
REMARK SCOREV: -31.86  :-0.62   :-2.00   :0.00    :0.08    :0.38    
REMARK  Name = test02
REMARK  6 active torsions:
REMARK  status: ('A' for Active; 'I' for Inactive)
REMARK    1  A    between atoms: _1  and  _2
REMARK    2  A    between atoms: _2  and  _3
REMARK    3  A    between atoms: _8  and  _9
REMARK    4  A    between atoms: _9  and  _10
REMARK    5  A    between atoms: _13  and  _15
REMARK    6  A    between atoms: _19  and  _21
ROOT
ATOM     10  C8  UNL     1       2.759  31.001  15.866  0.00 -0.31     0.299 A
ATOM     11  N2  UNL     1       3.839  30.262  15.513  0.00 -0.19    -0.201 NA
ATOM     12  C9  UNL     1       3.775  29.164  16.322  0.00 -0.19     0.076 A
ATOM     13  C10 UNL     1       2.635  29.277  17.126  0.00 -0.31     0.156 A
ATOM     14  O2  UNL     1       2.036  30.457  16.855  0.00 -0.17    -0.423 O
ATOM     33  H7  UNL     1       4.496  28.361  16.303  0.00  0.20     0.088 H 
ENDROOT
BRANCH 13 15
ATOM     15  C11 UNL     1       2.105  28.417  18.198  0.00 -0.30     0.020 A
ATOM     16  C12 UNL     1       2.484  27.066  18.254  0.00 -0.24    -0.051 A
ATOM     17  C13 UNL     1       1.950  26.241  19.233  0.00 -0.22    -0.061 A
ATOM     18  C14 UNL     1       1.017  26.743  20.140  0.00 -0.15    -0.054 A
ATOM     19  C15 UNL     1       0.611  28.085  20.063  0.00 -0.18    -0.016 A
ATOM     20  C16 UNL     1       1.147  28.916  19.073  0.00 -0.24    -0.043 A
ATOM     35  H9  UNL     1       3.203  26.665  17.555  0.00 -0.10     0.063 H 
ATOM     36  H10 UNL     1       2.252  25.206  19.292  0.00 -0.06     0.062 H 
ATOM     37  H11 UNL     1       0.600  26.088  20.889  0.00 -0.03     0.063 H 
ATOM     38  H12 UNL     1       0.839  29.949  19.004  0.00 -0.04     0.064 H 
BRANCH 19 21
ATOM     21  C17 UNL     1      -0.397  28.635  21.020  0.00 -0.13     0.000 A
ATOM     22  C18 UNL     1      -1.526  29.307  20.539  0.00 -0.09    -0.051 A
ATOM     23  C19 UNL     1      -2.449  29.830  21.442  0.00 -0.06    -0.043 A
ATOM     24  C20 UNL     1      -2.250  29.649  22.809  0.00 -0.10     0.027 A
ATOM     25  N3  UNL     1      -1.168  28.982  23.248  0.00 -0.66    -0.264 NA
ATOM     26  C21 UNL     1      -0.251  28.482  22.401  0.00 -0.20     0.035 A
ATOM     39  H13 UNL     1      -1.691  29.438  19.479  0.00 -0.03     0.063 H 
ATOM     40  H14 UNL     1      -3.296  30.376  21.069  0.00 -0.01     0.064 H 
ATOM     41  H15 UNL     1      -2.936  30.030  23.550  0.00 -0.02     0.084 H 
ATOM     42  H16 UNL     1       0.585  27.963  22.844  0.00 -0.07     0.085 H 
ENDBRANCH 19 21
ENDBRANCH 13 15
BRANCH 10 9
ATOM      9  N1  UNL     1       2.402  32.166  15.274  0.00 -0.38    -0.306 N
ATOM     27  H1  UNL     1       3.095  32.744  14.818  0.00 -0.10     0.171 HD
BRANCH 9 8
ATOM      3  C2  UNL     1       0.426  33.193  14.294  0.00 -0.28     0.142 A
ATOM      4  C3  UNL     1      -0.741  33.954  14.459  0.00 -0.26    -0.018 A
ATOM      5  C4  UNL     1      -1.157  34.363  15.730  0.00 -0.24    -0.058 A
ATOM      6  C5  UNL     1      -0.446  34.026  16.881  0.00 -0.16    -0.060 A
ATOM      7  C6  UNL     1       0.724  33.253  16.749  0.00 -0.16    -0.035 A
ATOM      8  C7  UNL     1       1.201  32.804  15.490  0.00 -0.32     0.085 A
ATOM     28  H2  UNL     1      -1.335  34.246  13.606  0.00 -0.09     0.066 H 
ATOM     29  H3  UNL     1      -2.063  34.949  15.809  0.00 -0.07     0.062 H 
ATOM     30  H4  UNL     1       1.256  32.981  17.648  0.00 -0.05     0.065 H 
ATOM     43  H17 UNL     1      -0.795  34.357  17.848  0.00 -0.03     0.062 H 
BRANCH 3 2
ATOM      2  O1  UNL     1       0.886  32.776  13.069  0.00 -0.23    -0.495 OA
BRANCH 2 1
ATOM      1  C1  UNL     1       0.282  33.158  11.835  0.00 -0.41     0.078 C
ATOM     31  H5  UNL     1       0.732  32.594  11.020  0.00 -0.13     0.067 H 
ATOM     32  H6  UNL     1      -0.787  32.938  11.832  0.00 -0.07     0.067 H 
ATOM     34  H8  UNL     1       0.429  34.221  11.638  0.00 -0.10     0.067 H 
ENDBRANCH 2 1
ENDBRANCH 3 2
ENDBRANCH 9 8
ENDBRANCH 10 9
TORSDOF 6
ENDMDL
MODEL 7
REMARK WATVina v2023.12.13
REMARK WATVINA RESULT:      -5.7
REMARK SCOREN: vdw     :hbond   :elec    :desol   :clash   :torsion  
REMARK SCOREV: -28.60  :-1.27   :-0.93   :0.00    :0.19    :0.19    
REMARK  Name = test02
REMARK  6 active torsions:
REMARK  status: ('A' for Active; 'I' for Inactive)
REMARK    1  A    between atoms: _1  and  _2
REMARK    2  A    between atoms: _2  and  _3
REMARK    3  A    between atoms: _8  and  _9
REMARK    4  A    between atoms: _9  and  _10
REMARK    5  A    between atoms: _13  and  _15
REMARK    6  A    between atoms: _19  and  _21
ROOT
ATOM     10  C8  UNL     1       2.501  28.687  17.714  0.00 -0.33     0.299 A
ATOM     11  N2  UNL     1       3.282  29.263  16.768  0.00 -0.44    -0.201 NA
ATOM     12  C9  UNL     1       2.544  30.320  16.318  0.00 -0.35     0.076 A
ATOM     13  C10 UNL     1       1.340  30.350  17.033  0.00 -0.17     0.156 A
ATOM     14  O2  UNL     1       1.315  29.292  17.873  0.00 -0.16    -0.423 O
ATOM     33  H7  UNL     1       2.875  30.999  15.549  0.00 -0.07     0.088 H 
ENDROOT
BRANCH 13 15
ATOM     15  C11 UNL     1       0.166  31.233  16.934  0.00 -0.22     0.020 A
ATOM     16  C12 UNL     1       0.254  32.422  16.192  0.00 -0.20    -0.051 A
ATOM     17  C13 UNL     1      -0.835  33.281  16.135  0.00 -0.19    -0.061 A
ATOM     18  C14 UNL     1      -2.002  32.978  16.835  0.00 -0.13    -0.054 A
ATOM     19  C15 UNL     1      -2.079  31.806  17.606  0.00 -0.19    -0.016 A
ATOM     20  C16 UNL     1      -0.979  30.944  17.666  0.00 -0.21    -0.043 A
ATOM     35  H9  UNL     1       1.154  32.668  15.648  0.00 -0.05     0.063 H 
ATOM     36  H10 UNL     1      -0.779  34.188  15.552  0.00 -0.05     0.062 H 
ATOM     37  H11 UNL     1      -2.838  33.660  16.793  0.00 -0.06     0.063 H 
ATOM     38  H12 UNL     1      -1.028  30.041  18.258  0.00 -0.04     0.064 H 
BRANCH 19 21
ATOM     21  C17 UNL     1      -3.319  31.475  18.372  0.00 -0.19     0.000 A
ATOM     22  C18 UNL     1      -3.237  31.160  19.732  0.00 -0.08    -0.051 A
ATOM     23  C19 UNL     1      -4.398  30.835  20.431  0.00 -0.08    -0.043 A
ATOM     24  C20 UNL     1      -5.626  30.861  19.772  0.00 -0.19     0.027 A
ATOM     25  N3  UNL     1      -5.682  31.187  18.469  0.00 -0.37    -0.264 NA
ATOM     26  C21 UNL     1      -4.577  31.487  17.765  0.00 -0.36     0.035 A
ATOM     39  H13 UNL     1      -2.290  31.152  20.251  0.00 -0.01     0.063 H 
ATOM     40  H14 UNL     1      -4.327  30.559  21.468  0.00 -0.01     0.064 H 
ATOM     41  H15 UNL     1      -6.555  30.622  20.268  0.00 -0.03     0.084 H 
ATOM     42  H16 UNL     1      -4.718  31.735  16.724  0.00 -0.12     0.085 H 
ENDBRANCH 19 21
ENDBRANCH 13 15
BRANCH 10 9
ATOM      9  N1  UNL     1       2.867  27.620  18.464  0.00 -0.31    -0.306 N
ATOM     27  H1  UNL     1       3.814  27.268  18.428  0.00 -0.55     0.171 HD
BRANCH 9 8
ATOM      3  C2  UNL     1       1.167  27.309  20.177  0.00 -0.11     0.142 A
ATOM      4  C3  UNL     1       0.338  26.443  20.906  0.00 -0.13    -0.018 A
ATOM      5  C4  UNL     1       0.292  25.077  20.610  0.00 -0.11    -0.058 A
ATOM      6  C5  UNL     1       1.051  24.520  19.582  0.00 -0.14    -0.060 A
ATOM      7  C6  UNL     1       1.885  25.367  18.825  0.00 -0.16    -0.035 A
ATOM      8  C7  UNL     1       1.977  26.762  19.070  0.00 -0.26     0.085 A
ATOM     28  H2  UNL     1      -0.275  26.815  21.714  0.00 -0.02     0.066 H 
ATOM     29  H3  UNL     1      -0.361  24.448  21.199  0.00 -0.01     0.062 H 
ATOM     30  H4  UNL     1       2.453  24.929  18.018  0.00 -0.07     0.065 H 
ATOM     43  H17 UNL     1       0.992  23.461  19.379  0.00 -0.03     0.062 H 
BRANCH 3 2
ATOM      2  O1  UNL     1       1.258  28.656  20.432  0.00 -0.17    -0.495 OA
BRANCH 2 1
ATOM      1  C1  UNL     1       0.409  29.337  21.354  0.00 -0.23     0.078 C
ATOM     31  H5  UNL     1       0.582  30.409  21.283  0.00 -0.06     0.067 H 
ATOM     32  H6  UNL     1      -0.643  29.161  21.127  0.00 -0.02     0.067 H 
ATOM     34  H8  UNL     1       0.612  29.024  22.379  0.00 -0.09     0.067 H 
ENDBRANCH 2 1
ENDBRANCH 3 2
ENDBRANCH 9 8
ENDBRANCH 10 9
TORSDOF 6
ENDMDL
MODEL 8
REMARK WATVina v2023.12.13
REMARK WATVINA RESULT:      -5.6
REMARK SCOREN: vdw     :hbond   :elec    :desol   :clash   :torsion  
REMARK SCOREV: -29.84  :-0.57   :-3.20   :0.00    :0.16    :0.51    
REMARK  Name = test02
REMARK  6 active torsions:
REMARK  status: ('A' for Active; 'I' for Inactive)
REMARK    1  A    between atoms: _1  and  _2
REMARK    2  A    between atoms: _2  and  _3
REMARK    3  A    between atoms: _8  and  _9
REMARK    4  A    between atoms: _9  and  _10
REMARK    5  A    between atoms: _13  and  _15
REMARK    6  A    between atoms: _19  and  _21
ROOT
ATOM     10  C8  UNL     1      -2.158  34.938  19.481  0.00 -0.09     0.299 A
ATOM     11  N2  UNL     1      -3.245  34.211  19.126  0.00 -0.03    -0.201 NA
ATOM     12  C9  UNL     1      -2.814  33.450  18.077  0.00 -0.17     0.076 A
ATOM     13  C10 UNL     1      -1.463  33.739  17.852  0.00 -0.13     0.156 A
ATOM     14  O2  UNL     1      -1.083  34.706  18.715  0.00 -0.09    -0.423 O
ATOM     33  H7  UNL     1      -3.440  32.748  17.548  0.00 -0.06     0.088 H 
ENDROOT
BRANCH 13 15
ATOM     15  C11 UNL     1      -0.516  33.254  16.834  0.00 -0.19     0.020 A
ATOM     16  C12 UNL     1       0.478  32.330  17.195  0.00 -0.20    -0.051 A
ATOM     17  C13 UNL     1       1.402  31.907  16.251  0.00 -0.25    -0.061 A
ATOM     18  C14 UNL     1       1.363  32.420  14.955  0.00 -0.30    -0.054 A
ATOM     19  C15 UNL     1       0.391  33.371  14.601  0.00 -0.29    -0.016 A
ATOM     20  C16 UNL     1      -0.537  33.799  15.555  0.00 -0.24    -0.043 A
ATOM     35  H9  UNL     1       0.519  31.928  18.197  0.00 -0.04     0.063 H 
ATOM     36  H10 UNL     1       2.157  31.184  16.519  0.00 -0.06     0.062 H 
ATOM     37  H11 UNL     1       2.095  32.092  14.233  0.00 -0.08     0.063 H 
ATOM     38  H12 UNL     1      -1.287  34.532  15.294  0.00 -0.06     0.064 H 
BRANCH 19 21
ATOM     21  C17 UNL     1       0.345  33.939  13.220  0.00 -0.37     0.000 A
ATOM     22  C18 UNL     1       0.575  33.113  12.115  0.00 -0.15    -0.051 A
ATOM     23  C19 UNL     1       0.546  33.660  10.833  0.00 -0.27    -0.043 A
ATOM     24  C20 UNL     1       0.257  35.013  10.670  0.00 -0.41     0.027 A
ATOM     25  N3  UNL     1       0.019  35.783  11.746  0.00 -0.80    -0.264 NA
ATOM     26  C21 UNL     1       0.058  35.288  12.996  0.00 -0.41     0.035 A
ATOM     39  H13 UNL     1       0.786  32.061  12.235  0.00 -0.09     0.063 H 
ATOM     40  H14 UNL     1       0.759  33.029   9.989  0.00 -0.17     0.064 H 
ATOM     41  H15 UNL     1       0.218  35.485   9.700  0.00 -0.12     0.084 H 
ATOM     42  H16 UNL     1      -0.146  35.981  13.798  0.00 -0.09     0.085 H 
ENDBRANCH 19 21
ENDBRANCH 13 15
BRANCH 10 9
ATOM      9  N1  UNL     1      -2.122  35.802  20.524  0.00 -0.12    -0.306 N
ATOM     27  H1  UNL     1      -2.631  35.602  21.374  0.00 -0.01     0.171 HD
BRANCH 9 8
ATOM      3  C2  UNL     1      -2.401  38.110  21.241  0.00 -0.06     0.142 A
ATOM      4  C3  UNL     1      -2.072  39.466  21.088  0.00 -0.15    -0.018 A
ATOM      5  C4  UNL     1      -1.100  39.868  20.167  0.00 -0.20    -0.058 A
ATOM      6  C5  UNL     1      -0.410  38.950  19.377  0.00 -0.26    -0.060 A
ATOM      7  C6  UNL     1      -0.709  37.581  19.516  0.00 -0.20    -0.035 A
ATOM      8  C7  UNL     1      -1.684  37.104  20.432  0.00 -0.14     0.085 A
ATOM     28  H2  UNL     1      -2.571  40.224  21.672  0.00 -0.04     0.066 H 
ATOM     29  H3  UNL     1      -0.881  40.923  20.083  0.00 -0.05     0.062 H 
ATOM     30  H4  UNL     1      -0.156  36.876  18.914  0.00 -0.05     0.065 H 
ATOM     43  H17 UNL     1       0.337  39.294  18.676  0.00 -0.11     0.062 H 
BRANCH 3 2
ATOM      2  O1  UNL     1      -3.355  37.662  22.121  0.00 -0.04    -0.495 OA
BRANCH 2 1
ATOM      1  C1  UNL     1      -3.911  38.474  23.154  0.00 -0.15     0.078 C
ATOM     31  H5  UNL     1      -4.743  37.950  23.620  0.00 -0.02     0.067 H 
ATOM     32  H6  UNL     1      -3.177  38.680  23.934  0.00 -0.09     0.067 H 
ATOM     34  H8  UNL     1      -4.282  39.419  22.753  0.00 -0.02     0.067 H 
ENDBRANCH 2 1
ENDBRANCH 3 2
ENDBRANCH 9 8
ENDBRANCH 10 9
TORSDOF 6
ENDMDL
MODEL 9
REMARK WATVina v2023.12.13
REMARK WATVINA RESULT:      -5.6
REMARK SCOREN: vdw     :hbond   :elec    :desol   :clash   :torsion  
REMARK SCOREV: -27.85  :-0.93   :-2.35   :0.00    :0.14    :0.31    
REMARK  Name = test02
REMARK  6 active torsions:
REMARK  status: ('A' for Active; 'I' for Inactive)
REMARK    1  A    between atoms: _1  and  _2
REMARK    2  A    between atoms: _2  and  _3
REMARK    3  A    between atoms: _8  and  _9
REMARK    4  A    between atoms: _9  and  _10
REMARK    5  A    between atoms: _13  and  _15
REMARK    6  A    between atoms: _19  and  _21
ROOT
ATOM     10  C8  UNL     1       2.627  28.026  18.321  0.00 -0.32     0.299 A
ATOM     11  N2  UNL     1       3.534  28.390  17.382  0.00 -0.55    -0.201 NA
ATOM     12  C9  UNL     1       3.014  29.527  16.833  0.00 -0.38     0.076 A
ATOM     13  C10 UNL     1       1.809  29.817  17.484  0.00 -0.21     0.156 A
ATOM     14  O2  UNL     1       1.563  28.840  18.384  0.00 -0.16    -0.423 O
ATOM     33  H7  UNL     1       3.490  30.084  16.041  0.00 -0.10     0.088 H 
ENDROOT
BRANCH 13 15
ATOM     15  C11 UNL     1       0.815  30.883  17.273  0.00 -0.22     0.020 A
ATOM     16  C12 UNL     1      -0.213  31.067  18.211  0.00 -0.17    -0.051 A
ATOM     17  C13 UNL     1      -1.180  32.039  17.992  0.00 -0.13    -0.061 A
ATOM     18  C14 UNL     1      -1.146  32.810  16.831  0.00 -0.18    -0.054 A
ATOM     19  C15 UNL     1      -0.138  32.604  15.875  0.00 -0.06    -0.016 A
ATOM     20  C16 UNL     1       0.833  31.621  16.095  0.00 -0.24    -0.043 A
ATOM     35  H9  UNL     1      -0.251  30.474  19.113  0.00 -0.03     0.063 H 
ATOM     36  H10 UNL     1      -1.963  32.196  18.719  0.00 -0.02     0.062 H 
ATOM     37  H11 UNL     1      -1.911  33.554  16.666  0.00 -0.05     0.063 H 
ATOM     38  H12 UNL     1       1.612  31.453  15.365  0.00 -0.06     0.064 H 
BRANCH 19 21
ATOM     21  C17 UNL     1      -0.096  33.413  14.620  0.00 -0.24     0.000 A
ATOM     22  C18 UNL     1       0.383  32.844  13.435  0.00 -0.18    -0.051 A
ATOM     23  C19 UNL     1       0.433  33.615  12.276  0.00 -0.33    -0.043 A
ATOM     24  C20 UNL     1      -0.024  34.931  12.306  0.00 -0.45     0.027 A
ATOM     25  N3  UNL     1      -0.500  35.450  13.452  0.00 -0.36    -0.264 NA
ATOM     26  C21 UNL     1      -0.544  34.736  14.590  0.00 -0.31     0.035 A
ATOM     39  H13 UNL     1       0.726  31.820  13.403  0.00  0.06     0.063 H 
ATOM     40  H14 UNL     1       0.835  33.185  11.376  0.00 -0.08     0.064 H 
ATOM     41  H15 UNL     1      -0.012  35.569  11.436  0.00 -0.11     0.084 H 
ATOM     42  H16 UNL     1      -0.941  35.236  15.460  0.00 -0.06     0.085 H 
ENDBRANCH 19 21
ENDBRANCH 13 15
BRANCH 10 9
ATOM      9  N1  UNL     1       2.767  26.966  19.151  0.00 -0.25    -0.306 N
ATOM     27  H1  UNL     1       3.575  26.360  19.079  0.00 -0.41     0.171 HD
BRANCH 9 8
ATOM      3  C2  UNL     1       1.491  24.995  19.787  0.00 -0.19     0.142 A
ATOM      4  C3  UNL     1       0.385  24.439  20.450  0.00 -0.09    -0.018 A
ATOM      5  C4  UNL     1      -0.478  25.243  21.201  0.00 -0.07    -0.058 A
ATOM      6  C5  UNL     1      -0.276  26.615  21.335  0.00 -0.10    -0.060 A
ATOM      7  C6  UNL     1       0.831  27.201  20.691  0.00 -0.09    -0.035 A
ATOM      8  C7  UNL     1       1.748  26.444  19.915  0.00 -0.18     0.085 A
ATOM     28  H2  UNL     1       0.177  23.382  20.385  0.00 -0.01     0.066 H 
ATOM     29  H3  UNL     1      -1.318  24.771  21.693  0.00 -0.01     0.062 H 
ATOM     30  H4  UNL     1       0.990  28.261  20.817  0.00 -0.05     0.065 H 
ATOM     43  H17 UNL     1      -0.962  27.208  21.923  0.00 -0.02     0.062 H 
BRANCH 3 2
ATOM      2  O1  UNL     1       2.364  24.254  19.028  0.00 -0.12    -0.495 OA
BRANCH 2 1
ATOM      1  C1  UNL     1       1.953  23.169  18.199  0.00 -0.05     0.078 C
ATOM     31  H5  UNL     1       1.388  23.553  17.352  0.00 -0.12     0.067 H 
ATOM     32  H6  UNL     1       2.813  22.628  17.800  0.00  0.11     0.067 H 
ATOM     34  H8  UNL     1       1.316  22.474  18.748  0.00 -0.02     0.067 H 
ENDBRANCH 2 1
ENDBRANCH 3 2
ENDBRANCH 9 8
ENDBRANCH 10 9
TORSDOF 6
ENDMDL
MODEL 10
REMARK WATVina v2023.12.13
REMARK WATVINA RESULT:      -5.4
REMARK SCOREN: vdw     :hbond   :elec    :desol   :clash   :torsion  
REMARK SCOREV: -30.60  :-0.30   :-2.73   :0.00    :0.10    :0.44    
REMARK  Name = test02
REMARK  6 active torsions:
REMARK  status: ('A' for Active; 'I' for Inactive)
REMARK    1  A    between atoms: _1  and  _2
REMARK    2  A    between atoms: _2  and  _3
REMARK    3  A    between atoms: _8  and  _9
REMARK    4  A    between atoms: _9  and  _10
REMARK    5  A    between atoms: _13  and  _15
REMARK    6  A    between atoms: _19  and  _21
ROOT
ATOM     10  C8  UNL     1      -1.236  34.860  15.599  0.00 -0.25     0.299 A
ATOM     11  N2  UNL     1      -0.899  34.893  14.287  0.00 -0.23    -0.201 NA
ATOM     12  C9  UNL     1       0.025  33.896  14.152  0.00 -0.37     0.076 A
ATOM     13  C10 UNL     1       0.195  33.283  15.398  0.00 -0.23     0.156 A
ATOM     14  O2  UNL     1      -0.573  33.930  16.302  0.00 -0.14    -0.423 O
ATOM     33  H7  UNL     1       0.509  33.649  13.219  0.00 -0.08     0.088 H 
ENDROOT
BRANCH 13 15
ATOM     15  C11 UNL     1       1.087  32.198  15.841  0.00 -0.26     0.020 A
ATOM     16  C12 UNL     1       2.291  31.968  15.156  0.00 -0.31    -0.051 A
ATOM     17  C13 UNL     1       3.112  30.916  15.539  0.00 -0.32    -0.061 A
ATOM     18  C14 UNL     1       2.728  30.073  16.581  0.00 -0.28    -0.054 A
ATOM     19  C15 UNL     1       1.507  30.281  17.244  0.00 -0.21    -0.016 A
ATOM     20  C16 UNL     1       0.679  31.338  16.854  0.00 -0.23    -0.043 A
ATOM     35  H9  UNL     1       2.597  32.613  14.345  0.00 -0.07     0.063 H 
ATOM     36  H10 UNL     1       4.047  30.747  15.027  0.00 -0.09     0.062 H 
ATOM     37  H11 UNL     1       3.369  29.251  16.861  0.00 -0.10     0.063 H 
ATOM     38  H12 UNL     1      -0.263  31.505  17.356  0.00 -0.04     0.064 H 
BRANCH 19 21
ATOM     21  C17 UNL     1       1.077  29.377  18.354  0.00 -0.24     0.000 A
ATOM     22  C18 UNL     1      -0.284  29.135  18.572  0.00 -0.14    -0.051 A
ATOM     23  C19 UNL     1      -0.672  28.305  19.621  0.00 -0.16    -0.043 A
ATOM     24  C20 UNL     1       0.300  27.704  20.417  0.00 -0.18     0.027 A
ATOM     25  N3  UNL     1       1.603  27.935  20.176  0.00 -0.14    -0.264 NA
ATOM     26  C21 UNL     1       2.007  28.746  19.183  0.00 -0.31     0.035 A
ATOM     39  H13 UNL     1      -1.041  29.588  17.949  0.00 -0.03     0.063 H 
ATOM     40  H14 UNL     1      -1.720  28.150  19.807  0.00 -0.04     0.064 H 
ATOM     41  H15 UNL     1       0.053  27.050  21.239  0.00 -0.03     0.084 H 
ATOM     42  H16 UNL     1       3.072  28.872  19.065  0.00 -0.09     0.085 H 
ENDBRANCH 19 21
ENDBRANCH 13 15
BRANCH 10 9
ATOM      9  N1  UNL     1      -2.172  35.657  16.170  0.00 -0.31    -0.306 N
ATOM     27  H1  UNL     1      -3.023  35.885  15.674  0.00 -0.02     0.171 HD
BRANCH 9 8
ATOM      3  C2  UNL     1      -2.390  37.853  17.194  0.00 -0.14     0.142 A
ATOM      4  C3  UNL     1      -2.068  38.728  18.243  0.00 -0.14    -0.018 A
ATOM      5  C4  UNL     1      -1.317  38.291  19.337  0.00 -0.18    -0.058 A
ATOM      6  C5  UNL     1      -0.867  36.976  19.443  0.00 -0.19    -0.060 A
ATOM      7  C6  UNL     1      -1.183  36.070  18.411  0.00 -0.11    -0.035 A
ATOM      8  C7  UNL     1      -1.943  36.447  17.273  0.00 -0.14     0.085 A
ATOM     28  H2  UNL     1      -2.390  39.759  18.219  0.00 -0.04     0.066 H 
ATOM     29  H3  UNL     1      -1.093  39.001  20.121  0.00 -0.04     0.062 H 
ATOM     30  H4  UNL     1      -0.846  35.049  18.512  0.00 -0.04     0.065 H 
ATOM     43  H17 UNL     1      -0.289  36.669  20.302  0.00 -0.08     0.062 H 
BRANCH 3 2
ATOM      2  O1  UNL     1      -3.115  38.233  16.091  0.00 -0.34    -0.495 OA
BRANCH 2 1
ATOM      1  C1  UNL     1      -3.988  39.360  16.079  0.00 -0.17     0.078 C
ATOM     31  H5  UNL     1      -4.629  39.314  15.201  0.00 -0.05     0.067 H 
ATOM     32  H6  UNL     1      -4.637  39.367  16.956  0.00 -0.02     0.067 H 
ATOM     34  H8  UNL     1      -3.424  40.293  16.043  0.00 -0.04     0.067 H 
ENDBRANCH 2 1
ENDBRANCH 3 2
ENDBRANCH 9 8
ENDBRANCH 10 9
TORSDOF 6
ENDMDL
