REMARK  Name = obj01
REMARK  10 active torsions:
REMARK  status: ('A' for Active; 'I' for Inactive)
REMARK    1  A    between atoms: _1  and  _2
REMARK    2  A    between atoms: _2  and  _3
REMARK    3  A    between atoms: _6  and  _27
REMARK    4  A    between atoms: _8  and  _9
REMARK    5  A    between atoms: _9  and  _10
REMARK    6  A    between atoms: _13  and  _15
REMARK    7  A    between atoms: _19  and  _21
REMARK    8  A    between atoms: _27  and  _30
REMARK    9  A    between atoms: _30  and  _31
REMARK   10  A    between atoms: _31  and  _32
ROOT
ATOM      3  C2  UNL     1       1.762  26.477  19.538  0.00  0.00     0.142 A
ATOM      4  C3  UNL     1       0.766  26.202  20.488  0.00  0.00    -0.016 A
ATOM      5  C4  UNL     1       0.032  27.236  21.077  0.00  0.00    -0.038 A
ATOM      6  C5  UNL     1       0.261  28.574  20.761  0.00  0.00     0.084 A
ATOM      7  C6  UNL     1       1.262  28.883  19.819  0.00  0.00    -0.015 A
ATOM      8  C7  UNL     1       2.045  27.883  19.185  0.00  0.00     0.086 A
ATOM     37  H3  UNL     1       0.543  25.185  20.775  0.00  0.00     0.066 H 
ATOM     38  H4  UNL     1      -0.726  26.976  21.803  0.00  0.00     0.064 H 
ATOM     39  H5  UNL     1       1.445  29.923  19.596  0.00  0.00     0.066 H 
ENDROOT
BRANCH 8 9
ATOM      9  N1  UNL     1       2.940  28.101  18.162  0.00  0.00    -0.306 N
ATOM     36  H2  UNL     1       3.553  27.317  17.982  0.00  0.00     0.171 HD
BRANCH 9 10
ATOM     10  C8  UNL     1       2.840  29.115  17.269  0.00  0.00     0.299 A
ATOM     11  N2  UNL     1       3.752  29.377  16.302  0.00  0.00    -0.201 NA
ATOM     12  C9  UNL     1       3.280  30.502  15.689  0.00  0.00     0.076 A
ATOM     13  C10 UNL     1       2.098  30.889  16.332  0.00  0.00     0.156 A
ATOM     14  O2  UNL     1       1.817  29.981  17.292  0.00  0.00    -0.423 O
ATOM     42  H8  UNL     1       3.773  30.986  14.860  0.00  0.00     0.088 H 
BRANCH 13 15
ATOM     15  C11 UNL     1       1.154  31.987  16.065  0.00  0.00     0.020 A
ATOM     16  C12 UNL     1       0.200  32.332  17.036  0.00  0.00    -0.051 A
ATOM     17  C13 UNL     1      -0.723  33.334  16.770  0.00  0.00    -0.061 A
ATOM     18  C14 UNL     1      -0.722  33.975  15.532  0.00  0.00    -0.054 A
ATOM     19  C15 UNL     1       0.209  33.607  14.547  0.00  0.00    -0.016 A
ATOM     20  C16 UNL     1       1.136  32.594  14.815  0.00  0.00    -0.043 A
ATOM     44  H10 UNL     1       0.188  31.840  17.998  0.00  0.00     0.063 H 
ATOM     45  H11 UNL     1      -1.447  33.615  17.520  0.00  0.00     0.062 H 
ATOM     46  H12 UNL     1      -1.453  34.744  15.333  0.00  0.00     0.063 H 
ATOM     47  H13 UNL     1       1.855  32.302  14.063  0.00  0.00     0.064 H 
BRANCH 19 21
ATOM     21  C17 UNL     1       0.214  34.276  13.211  0.00  0.00     0.000 A
ATOM     22  C18 UNL     1       0.420  33.522  12.051  0.00  0.00    -0.051 A
ATOM     23  C19 UNL     1       0.440  34.161  10.813  0.00  0.00    -0.043 A
ATOM     24  C20 UNL     1       0.223  35.536  10.746  0.00  0.00     0.027 A
ATOM     25  N3  UNL     1       0.007  36.237  11.873  0.00  0.00    -0.264 NA
ATOM     26  C21 UNL     1       0.000  35.651  13.083  0.00  0.00     0.035 A
ATOM     48  H14 UNL     1       0.575  32.454  12.096  0.00  0.00     0.063 H 
ATOM     49  H15 UNL     1       0.634  33.583   9.927  0.00  0.00     0.064 H 
ATOM     50  H16 UNL     1       0.224  36.078   9.813  0.00  0.00     0.084 H 
ATOM     51  H17 UNL     1      -0.181  36.293  13.931  0.00  0.00     0.085 H 
ENDBRANCH 19 21
ENDBRANCH 13 15
ENDBRANCH 9 10
ENDBRANCH 8 9
BRANCH 6 27
ATOM     27  S1  UNL     1      -0.614  29.721  21.522  0.00  0.00     0.240 SA
ATOM     28  O3  UNL     1      -0.047  31.018  21.331  0.00  0.00    -0.207 OA
ATOM     29  O4  UNL     1      -0.544  29.422  22.924  0.00  0.00    -0.207 OA
BRANCH 27 30
ATOM     30  N4  UNL     1      -2.109  29.791  20.976  0.00  0.00    -0.211 N
ATOM     35  H1  UNL     1      -2.745  30.355  21.543  0.00  0.00     0.141 HD
BRANCH 30 31
ATOM     31  C22 UNL     1      -2.341  29.916  19.546  0.00  0.00     0.014 C
ATOM     53  H19 UNL     1      -2.340  28.909  19.127  0.00  0.00     0.044 H 
ATOM     54  H20 UNL     1      -1.505  30.446  19.085  0.00  0.00     0.044 H 
BRANCH 31 32
ATOM     32  C23 UNL     1      -3.674  30.595  19.252  0.00  0.00    -0.028 C
ATOM     33  C24 UNL     1      -3.651  32.110  19.093  0.00  0.00    -0.049 C
ATOM     34  C25 UNL     1      -3.776  31.217  17.862  0.00  0.00    -0.049 C
ATOM     52  H18 UNL     1      -4.551  30.100  19.672  0.00  0.00     0.032 H 
ATOM     55  H21 UNL     1      -2.717  32.639  19.284  0.00  0.00     0.027 H 
ATOM     56  H22 UNL     1      -4.522  32.677  19.424  0.00  0.00     0.027 H 
ATOM     57  H23 UNL     1      -4.730  31.179  17.339  0.00  0.00     0.027 H 
ATOM     58  H24 UNL     1      -2.931  31.130  17.177  0.00  0.00     0.027 H 
ENDBRANCH 31 32
ENDBRANCH 30 31
ENDBRANCH 27 30
ENDBRANCH 6 27
BRANCH 3 2
ATOM      2  O1  UNL     1       2.504  25.500  18.921  0.00  0.00    -0.495 OA
BRANCH 2 1
ATOM      1  C1  UNL     1       2.242  24.106  19.071  0.00  0.00     0.078 C
ATOM     40  H6  UNL     1       2.982  23.535  18.514  0.00  0.00     0.067 H 
ATOM     41  H7  UNL     1       2.313  23.800  20.116  0.00  0.00     0.067 H 
ATOM     43  H9  UNL     1       1.253  23.849  18.689  0.00  0.00     0.067 H 
ENDBRANCH 2 1
ENDBRANCH 3 2
TORSDOF 10
