REMARK  Name = AAX
REMARK  9 active torsions:
REMARK  status: ('A' for Active; 'I' for Inactive)
REMARK    1  A    between atoms: _2  and  _4
REMARK    2  A    between atoms: _2  and  _9
REMARK    3  A    between atoms: _4  and  _5
REMARK    4  A    between atoms: _5  and  _6
REMARK    5  A    between atoms: _13  and  _17
REMARK    6  A    between atoms: _14  and  _15
REMARK    7  A    between atoms: _17  and  _18
REMARK    8  A    between atoms: _20  and  _23
REMARK    9  A    between atoms: _25  and  _29
ROOT
ATOM      9  C5  UNL     1       0.257  28.617  20.772  0.00  0.00     0.084 A 
ATOM     10  C6  UNL     1       0.005  27.285  21.076  0.00  0.00    -0.038 A 
ATOM     11  C7  UNL     1       0.740  26.264  20.472  0.00  0.00    -0.016 A 
ATOM     12  C8  UNL     1       1.270  28.887  19.820  0.00  0.00    -0.015 A 
ATOM     13  C9  UNL     1       2.006  27.868  19.172  0.00  0.00     0.086 A 
ATOM     14  C10 UNL     1       1.727  26.553  19.510  0.00  0.00     0.142 A 
ATOM     43  H9  UNL     1      -0.749  27.013  21.812  0.00  0.00     0.064 H 
ATOM     44  H10 UNL     1       0.518  25.236  20.746  0.00  0.00     0.066 H 
ATOM     45  H11 UNL     1       1.498  29.930  19.605  0.00  0.00     0.066 H 
ENDROOT
BRANCH 13 17
ATOM     17  N2  UNL     1       2.939  28.100  18.157  0.00  0.00    -0.306 N 
ATOM     46  H12 UNL     1       3.658  27.383  18.066  0.00  0.00     0.171 HD
BRANCH 17 18
ATOM     18  C12 UNL     1       2.859  29.108  17.251  0.00  0.00     0.299 A 
ATOM     19  O4  UNL     1       1.835  29.981  17.265  0.00  0.00    -0.423 O 
ATOM     20  C13 UNL     1       2.164  30.901  16.325  0.00  0.00     0.156 A 
ATOM     21  C14 UNL     1       3.350  30.513  15.703  0.00  0.00     0.076 A 
ATOM     22  N3  UNL     1       3.811  29.380  16.306  0.00  0.00    -0.201 NA
ATOM     47  H13 UNL     1       3.879  31.005  14.899  0.00  0.00     0.088 H 
BRANCH 20 23
ATOM     23  C15 UNL     1       1.204  31.967  16.050  0.00  0.00     0.020 A 
ATOM     24  C16 UNL     1       1.152  32.577  14.797  0.00  0.00    -0.043 A 
ATOM     25  C17 UNL     1       0.191  33.555  14.539  0.00  0.00    -0.016 A 
ATOM     26  C18 UNL     1      -0.769  33.879  15.520  0.00  0.00    -0.054 A 
ATOM     27  C19 UNL     1      -0.746  33.199  16.734  0.00  0.00    -0.061 A 
ATOM     28  C20 UNL     1       0.219  32.250  17.003  0.00  0.00    -0.051 A 
ATOM     48  H14 UNL     1       1.903  32.337  14.051  0.00  0.00     0.064 H 
ATOM     49  H15 UNL     1      -1.528  34.622  15.325  0.00  0.00     0.063 H 
ATOM     50  H16 UNL     1      -1.478  33.438  17.501  0.00  0.00     0.062 H 
ATOM     51  H17 UNL     1       0.233  31.764  17.976  0.00  0.00     0.063 H 
BRANCH 25 29
ATOM     29  C21 UNL     1       0.189  34.233  13.205  0.00  0.00     0.000 A 
ATOM     30  C22 UNL     1       0.002  35.621  13.093  0.00  0.00     0.035 A 
ATOM     31  N4  UNL     1       0.031  36.250  11.897  0.00  0.00    -0.264 NA
ATOM     32  C23 UNL     1       0.225  35.552  10.772  0.00  0.00     0.027 A 
ATOM     33  C24 UNL     1       0.428  34.170  10.822  0.00  0.00    -0.043 A 
ATOM     34  C25 UNL     1       0.391  33.492  12.044  0.00  0.00    -0.051 A 
ATOM     52  H18 UNL     1      -0.162  36.248  13.956  0.00  0.00     0.085 H 
ATOM     53  H19 UNL     1       0.270  36.105   9.844  0.00  0.00     0.084 H 
ATOM     54  H20 UNL     1       0.650  33.619   9.916  0.00  0.00     0.064 H 
ATOM     55  H21 UNL     1       0.541  32.417  12.056  0.00  0.00     0.063 H 
ENDBRANCH 25 29
ENDBRANCH 20 23
ENDBRANCH 17 18
ENDBRANCH 13 17
BRANCH 9 2
ATOM      1  O1  UNL     1      -0.037  31.044  21.305  0.00  0.00    -0.207 OA
ATOM      2  S1  UNL     1      -0.605  29.778  21.561  0.00  0.00     0.240 S 
ATOM      3  O2  UNL     1      -0.477  29.435  22.941  0.00  0.00    -0.207 OA
BRANCH 2 4
ATOM      4  N1  UNL     1      -2.100  29.857  21.021  0.00  0.00    -0.211 N 
ATOM     35  H1  UNL     1      -2.749  29.184  21.455  0.00  0.00     0.141 HD
BRANCH 4 5
ATOM      5  C1  UNL     1      -2.281  30.124  19.594  0.00  0.00     0.014 C 
ATOM     36  H2  UNL     1      -1.558  30.867  19.243  0.00  0.00     0.044 H 
ATOM     37  H3  UNL     1      -2.100  29.193  19.045  0.00  0.00     0.044 H 
BRANCH 5 6
ATOM      6  C2  UNL     1      -3.697  30.582  19.247  0.00  0.00    -0.028 C 
ATOM      7  C3  UNL     1      -3.861  31.122  17.827  0.00  0.00    -0.049 C 
ATOM      8  C4  UNL     1      -3.906  32.070  19.018  0.00  0.00    -0.049 C 
ATOM     38  H4  UNL     1      -4.484  29.971  19.664  0.00  0.00     0.032 H 
ATOM     39  H5  UNL     1      -2.992  31.151  17.180  0.00  0.00     0.027 H 
ATOM     40  H6  UNL     1      -4.791  30.928  17.312  0.00  0.00     0.027 H 
ATOM     41  H7  UNL     1      -3.070  32.734  19.204  0.00  0.00     0.027 H 
ATOM     42  H8  UNL     1      -4.865  32.490  19.303  0.00  0.00     0.027 H 
ENDBRANCH 5 6
ENDBRANCH 4 5
ENDBRANCH 2 4
ENDBRANCH 9 2
BRANCH 14 15
ATOM     15  O3  UNL     1       2.444  25.573  18.876  0.00  0.00    -0.495 OA
ATOM     16  C11 UNL     1       2.272  24.164  19.097  0.00  0.00     0.078 C 
ATOM     56  H22 UNL     1       2.969  23.650  18.444  0.00  0.00     0.067 H 
ATOM     57  H23 UNL     1       1.254  23.864  18.833  0.00  0.00     0.067 H 
ATOM     58  H24 UNL     1       2.494  23.919  20.134  0.00  0.00     0.067 H 
ENDBRANCH 14 15
TORSDOF 9
