test01
  By Biocheming          3D                             0

 58 62  0  0  0  0  0  0  0  0999 V2000
    2.2420   24.1060   19.0710 C   0  0  0  0  0  0  0  0  0  0  0  0
    2.5040   25.5000   18.9210 O   0  0  0  0  0  0  0  0  0  0  0  0
    1.7620   26.4770   19.5380 C   0  0  0  0  0  0  0  0  0  0  0  0
    0.7660   26.2020   20.4880 C   0  0  0  0  0  0  0  0  0  0  0  0
    0.0320   27.2360   21.0770 C   0  0  0  0  0  0  0  0  0  0  0  0
    0.2610   28.5740   20.7610 C   0  0  0  0  0  0  0  0  0  0  0  0
    1.2620   28.8830   19.8190 C   0  0  0  0  0  0  0  0  0  0  0  0
    2.0450   27.8830   19.1850 C   0  0  0  0  0  0  0  0  0  0  0  0
    2.9400   28.1010   18.1620 N   0  0  0  0  0  0  0  0  0  0  0  0
    2.8400   29.1150   17.2690 C   0  0  0  0  0  0  0  0  0  0  0  0
    3.7520   29.3770   16.3020 N   0  0  0  0  0  0  0  0  0  0  0  0
    3.2800   30.5020   15.6890 C   0  0  0  0  0  0  0  0  0  0  0  0
    2.0980   30.8890   16.3320 C   0  0  0  0  0  0  0  0  0  0  0  0
    1.8170   29.9810   17.2920 O   0  0  0  0  0  0  0  0  0  0  0  0
    1.1540   31.9870   16.0650 C   0  0  0  0  0  0  0  0  0  0  0  0
    0.2000   32.3320   17.0360 C   0  0  0  0  0  0  0  0  0  0  0  0
   -0.7230   33.3340   16.7700 C   0  0  0  0  0  0  0  0  0  0  0  0
   -0.7220   33.9750   15.5320 C   0  0  0  0  0  0  0  0  0  0  0  0
    0.2090   33.6070   14.5470 C   0  0  0  0  0  0  0  0  0  0  0  0
    1.1360   32.5940   14.8150 C   0  0  0  0  0  0  0  0  0  0  0  0
    0.2140   34.2760   13.2110 C   0  0  0  0  0  0  0  0  0  0  0  0
    0.4200   33.5220   12.0510 C   0  0  0  0  0  0  0  0  0  0  0  0
    0.4400   34.1610   10.8130 C   0  0  0  0  0  0  0  0  0  0  0  0
    0.2230   35.5360   10.7460 C   0  0  0  0  0  0  0  0  0  0  0  0
    0.0070   36.2370   11.8730 N   0  0  0  0  0  0  0  0  0  0  0  0
    0.0000   35.6510   13.0830 C   0  0  0  0  0  0  0  0  0  0  0  0
   -0.6140   29.7210   21.5220 S   0  0  0  0  0  0  0  0  0  0  0  0
   -0.0470   31.0180   21.3310 O   0  0  0  0  0  0  0  0  0  0  0  0
   -0.5440   29.4220   22.9240 O   0  0  0  0  0  0  0  0  0  0  0  0
   -2.1090   29.7910   20.9760 N   0  0  0  0  0  0  0  0  0  0  0  0
   -2.3410   29.9160   19.5460 C   0  0  0  0  0  0  0  0  0  0  0  0
   -3.6740   30.5950   19.2520 C   0  0  0  0  0  0  0  0  0  0  0  0
   -3.6510   32.1100   19.0930 C   0  0  0  0  0  0  0  0  0  0  0  0
   -3.7760   31.2170   17.8620 C   0  0  0  0  0  0  0  0  0  0  0  0
   -2.7450   30.3550   21.5430 H   0  0  0  0  0  0  0  0  0  0  0  0
    3.5530   27.3170   17.9820 H   0  0  0  0  0  0  0  0  0  0  0  0
    0.5430   25.1850   20.7750 H   0  0  0  0  0  0  0  0  0  0  0  0
   -0.7260   26.9760   21.8030 H   0  0  0  0  0  0  0  0  0  0  0  0
    1.4450   29.9230   19.5960 H   0  0  0  0  0  0  0  0  0  0  0  0
    2.9820   23.5350   18.5140 H   0  0  0  0  0  0  0  0  0  0  0  0
    2.3130   23.8000   20.1160 H   0  0  0  0  0  0  0  0  0  0  0  0
    3.7730   30.9860   14.8600 H   0  0  0  0  0  0  0  0  0  0  0  0
    1.2530   23.8490   18.6890 H   0  0  0  0  0  0  0  0  0  0  0  0
    0.1880   31.8400   17.9980 H   0  0  0  0  0  0  0  0  0  0  0  0
   -1.4470   33.6150   17.5200 H   0  0  0  0  0  0  0  0  0  0  0  0
   -1.4530   34.7440   15.3330 H   0  0  0  0  0  0  0  0  0  0  0  0
    1.8550   32.3020   14.0630 H   0  0  0  0  0  0  0  0  0  0  0  0
    0.5750   32.4540   12.0960 H   0  0  0  0  0  0  0  0  0  0  0  0
    0.6340   33.5830    9.9270 H   0  0  0  0  0  0  0  0  0  0  0  0
    0.2240   36.0780    9.8130 H   0  0  0  0  0  0  0  0  0  0  0  0
   -0.1810   36.2930   13.9310 H   0  0  0  0  0  0  0  0  0  0  0  0
   -4.5510   30.1000   19.6720 H   0  0  0  0  0  0  0  0  0  0  0  0
   -2.3400   28.9090   19.1270 H   0  0  0  0  0  0  0  0  0  0  0  0
   -1.5050   30.4460   19.0850 H   0  0  0  0  0  0  0  0  0  0  0  0
   -2.7170   32.6390   19.2840 H   0  0  0  0  0  0  0  0  0  0  0  0
   -4.5220   32.6770   19.4240 H   0  0  0  0  0  0  0  0  0  0  0  0
   -4.7300   31.1790   17.3390 H   0  0  0  0  0  0  0  0  0  0  0  0
   -2.9310   31.1300   17.1770 H   0  0  0  0  0  0  0  0  0  0  0  0
  1 40  1  0  0  0  0
  1 41  1  0  0  0  0
  1 43  1  0  0  0  0
  1  2  1  0  0  0  0
  2  3  1  0  0  0  0
  3  4  4  0  0  0  0
  4  5  4  0  0  0  0
  4 37  1  0  0  0  0
  5 38  1  0  0  0  0
  5  6  4  0  0  0  0
  6  7  4  0  0  0  0
  7  8  4  0  0  0  0
  7 39  1  0  0  0  0
  3  8  4  0  0  0  0
  8  9  1  0  0  0  0
  9 10  1  0  0  0  0
  9 36  1  0  0  0  0
 10 11  4  0  0  0  0
 10 14  4  0  0  0  0
 11 12  4  0  0  0  0
 12 13  4  0  0  0  0
 12 42  1  0  0  0  0
 13 14  4  0  0  0  0
 13 15  1  0  0  0  0
 15 16  4  0  0  0  0
 15 20  4  0  0  0  0
 16 17  4  0  0  0  0
 16 44  1  0  0  0  0
 17 18  4  0  0  0  0
 17 45  1  0  0  0  0
 18 19  4  0  0  0  0
 18 46  1  0  0  0  0
 19 20  4  0  0  0  0
 19 21  1  0  0  0  0
 20 47  1  0  0  0  0
 21 22  4  0  0  0  0
 21 26  4  0  0  0  0
 22 23  4  0  0  0  0
 22 48  1  0  0  0  0
 23 24  4  0  0  0  0
 23 49  1  0  0  0  0
 24 25  4  0  0  0  0
 24 50  1  0  0  0  0
 25 26  4  0  0  0  0
 26 51  1  0  0  0  0
  6 27  1  0  0  0  0
 27 29  2  0  0  0  0
 27 30  1  0  0  0  0
 27 28  2  0  0  0  0
 30 31  1  0  0  0  0
 30 35  1  0  0  0  0
 31 32  1  0  0  0  0
 31 53  1  0  0  0  0
 31 54  1  0  0  0  0
 32 33  1  0  0  0  0
 32 34  1  0  0  0  0
 32 52  1  0  0  0  0
 33 34  1  0  0  0  0
 33 55  1  0  0  0  0
 33 56  1  0  0  0  0
 34 57  1  0  0  0  0
 34 58  1  0  0  0  0
M  END
$$$$
