AAX
 OpenBabel12132314023D

 58 62  0  0  0  0  0  0  0  0999 V2000
   -0.0370   31.0440   21.3050 O   0  0  0  0  0  0  0  0  0  0  0  0
   -0.6050   29.7780   21.5610 S   0  0  0  0  0  0  0  0  0  0  0  0
   -0.4770   29.4350   22.9410 O   0  0  0  0  0  0  0  0  0  0  0  0
   -2.1000   29.8570   21.0210 N   0  0  0  0  0  0  0  0  0  0  0  0
   -2.2810   30.1240   19.5940 C   0  0  0  0  0  0  0  0  0  0  0  0
   -3.6970   30.5820   19.2470 C   0  0  0  0  0  0  0  0  0  0  0  0
   -3.8610   31.1220   17.8270 C   0  0  0  0  0  0  0  0  0  0  0  0
   -3.9060   32.0700   19.0180 C   0  0  0  0  0  0  0  0  0  0  0  0
    0.2570   28.6170   20.7720 C   0  0  0  0  0  0  0  0  0  0  0  0
    0.0050   27.2850   21.0760 C   0  0  0  0  0  0  0  0  0  0  0  0
    0.7400   26.2640   20.4720 C   0  0  0  0  0  0  0  0  0  0  0  0
    1.2700   28.8870   19.8200 C   0  0  0  0  0  0  0  0  0  0  0  0
    2.0060   27.8680   19.1720 C   0  0  0  0  0  0  0  0  0  0  0  0
    1.7270   26.5530   19.5100 C   0  0  0  0  0  0  0  0  0  0  0  0
    2.4440   25.5730   18.8760 O   0  0  0  0  0  0  0  0  0  0  0  0
    2.2720   24.1640   19.0970 C   0  0  0  0  0  0  0  0  0  0  0  0
    2.9390   28.1000   18.1570 N   0  0  0  0  0  0  0  0  0  0  0  0
    2.8590   29.1080   17.2510 C   0  0  0  0  0  0  0  0  0  0  0  0
    1.8350   29.9810   17.2650 O   0  0  0  0  0  0  0  0  0  0  0  0
    2.1640   30.9010   16.3250 C   0  0  0  0  0  0  0  0  0  0  0  0
    3.3500   30.5130   15.7030 C   0  0  0  0  0  0  0  0  0  0  0  0
    3.8110   29.3800   16.3060 N   0  0  0  0  0  0  0  0  0  0  0  0
    1.2040   31.9670   16.0500 C   0  0  0  0  0  0  0  0  0  0  0  0
    1.1520   32.5770   14.7970 C   0  0  0  0  0  0  0  0  0  0  0  0
    0.1910   33.5550   14.5390 C   0  0  0  0  0  0  0  0  0  0  0  0
   -0.7690   33.8790   15.5200 C   0  0  0  0  0  0  0  0  0  0  0  0
   -0.7460   33.1990   16.7340 C   0  0  0  0  0  0  0  0  0  0  0  0
    0.2190   32.2500   17.0030 C   0  0  0  0  0  0  0  0  0  0  0  0
    0.1890   34.2330   13.2050 C   0  0  0  0  0  0  0  0  0  0  0  0
    0.0020   35.6210   13.0930 C   0  0  0  0  0  0  0  0  0  0  0  0
    0.0310   36.2500   11.8970 N   0  0  0  0  0  0  0  0  0  0  0  0
    0.2250   35.5520   10.7720 C   0  0  0  0  0  0  0  0  0  0  0  0
    0.4280   34.1700   10.8220 C   0  0  0  0  0  0  0  0  0  0  0  0
    0.3910   33.4920   12.0440 C   0  0  0  0  0  0  0  0  0  0  0  0
   -2.7490   29.1840   21.4550 H   0  0  0  0  0  0  0  0  0  0  0  0
   -1.5580   30.8670   19.2430 H   0  0  0  0  0  0  0  0  0  0  0  0
   -2.1000   29.1930   19.0450 H   0  0  0  0  0  0  0  0  0  0  0  0
   -4.4840   29.9710   19.6640 H   0  0  0  0  0  0  0  0  0  0  0  0
   -2.9920   31.1510   17.1800 H   0  0  0  0  0  0  0  0  0  0  0  0
   -4.7910   30.9280   17.3120 H   0  0  0  0  0  0  0  0  0  0  0  0
   -3.0700   32.7340   19.2040 H   0  0  0  0  0  0  0  0  0  0  0  0
   -4.8650   32.4900   19.3030 H   0  0  0  0  0  0  0  0  0  0  0  0
   -0.7490   27.0130   21.8120 H   0  0  0  0  0  0  0  0  0  0  0  0
    0.5180   25.2360   20.7460 H   0  0  0  0  0  0  0  0  0  0  0  0
    1.4980   29.9300   19.6050 H   0  0  0  0  0  0  0  0  0  0  0  0
    3.6580   27.3830   18.0660 H   0  0  0  0  0  0  0  0  0  0  0  0
    3.8790   31.0050   14.8990 H   0  0  0  0  0  0  0  0  0  0  0  0
    1.9030   32.3370   14.0510 H   0  0  0  0  0  0  0  0  0  0  0  0
   -1.5280   34.6220   15.3250 H   0  0  0  0  0  0  0  0  0  0  0  0
   -1.4780   33.4380   17.5010 H   0  0  0  0  0  0  0  0  0  0  0  0
    0.2330   31.7640   17.9760 H   0  0  0  0  0  0  0  0  0  0  0  0
   -0.1620   36.2480   13.9560 H   0  0  0  0  0  0  0  0  0  0  0  0
    0.2700   36.1050    9.8440 H   0  0  0  0  0  0  0  0  0  0  0  0
    0.6500   33.6190    9.9160 H   0  0  0  0  0  0  0  0  0  0  0  0
    0.5410   32.4170   12.0560 H   0  0  0  0  0  0  0  0  0  0  0  0
    2.9690   23.6500   18.4440 H   0  0  0  0  0  0  0  0  0  0  0  0
    1.2540   23.8640   18.8330 H   0  0  0  0  0  0  0  0  0  0  0  0
    2.4940   23.9190   20.1340 H   0  0  0  0  0  0  0  0  0  0  0  0
  1  2  2  0  0  0  0
  2  3  2  0  0  0  0
  2  4  1  0  0  0  0
  2  9  1  0  0  0  0
  4  5  1  0  0  0  0
  4 35  1  0  0  0  0
  5  6  1  0  0  0  0
  5 36  1  0  0  0  0
  5 37  1  0  0  0  0
  6  7  1  0  0  0  0
  6  8  1  0  0  0  0
  6 38  1  0  0  0  0
  7  8  1  0  0  0  0
  7 39  1  0  0  0  0
  7 40  1  0  0  0  0
  8 41  1  0  0  0  0
  8 42  1  0  0  0  0
  9 10  2  0  0  0  0
  9 12  1  0  0  0  0
 10 11  1  0  0  0  0
 10 43  1  0  0  0  0
 11 14  2  0  0  0  0
 11 44  1  0  0  0  0
 12 13  2  0  0  0  0
 12 45  1  0  0  0  0
 13 14  1  0  0  0  0
 13 17  1  0  0  0  0
 14 15  1  0  0  0  0
 15 16  1  0  0  0  0
 16 56  1  0  0  0  0
 16 57  1  0  0  0  0
 16 58  1  0  0  0  0
 17 18  1  0  0  0  0
 17 46  1  0  0  0  0
 18 19  1  0  0  0  0
 18 22  2  0  0  0  0
 19 20  1  0  0  0  0
 20 21  2  0  0  0  0
 20 23  1  0  0  0  0
 21 22  1  0  0  0  0
 21 47  1  0  0  0  0
 23 24  2  0  0  0  0
 23 28  1  0  0  0  0
 24 25  1  0  0  0  0
 24 48  1  0  0  0  0
 25 26  2  0  0  0  0
 25 29  1  0  0  0  0
 26 27  1  0  0  0  0
 26 49  1  0  0  0  0
 27 28  2  0  0  0  0
 27 50  1  0  0  0  0
 28 51  1  0  0  0  0
 29 30  2  0  0  0  0
 29 34  1  0  0  0  0
 30 31  1  0  0  0  0
 30 52  1  0  0  0  0
 31 32  2  0  0  0  0
 32 33  1  0  0  0  0
 32 53  1  0  0  0  0
 33 34  2  0  0  0  0
 33 54  1  0  0  0  0
 34 55  1  0  0  0  0
M  END
>  <HEADER>
    TRANSFERASE                             05-DEC-04   1Y6B              

>  <TITLE>
    CRYSTAL STRUCTURE OF VEGFR2 IN COMPLEX WITH A 2-ANILINO-5-ARYL-OXAZOLE
   2 INHIBITOR                                                            

>  <COMPND>
    MOL_ID: 1;                                                            
   2 MOLECULE: VASCULAR ENDOTHELIAL GROWTH FACTOR RECEPTOR 2;             
   3 CHAIN: A;                                                            
   4 SYNONYM: VEGFR-2, KINASE INSERT DOMAIN RECEPTOR, PROTEIN-TYROSINE    
   5 KINASE RECEPTOR FLK-1;                                               
   6 EC: 2.7.1.112;                                                       
   7 ENGINEERED: YES                                                      

>  <SOURCE>
    MOL_ID: 1;                                                            
   2 ORGANISM_SCIENTIFIC: HOMO SAPIENS;                                   
   3 ORGANISM_COMMON: HUMAN;                                              
   4 ORGANISM_TAXID: 9606;                                                
   5 GENE: KDR, FLK1;                                                     
   6 EXPRESSION_SYSTEM: ESCHERICHIA COLI;                                 
   7 EXPRESSION_SYSTEM_TAXID: 562                                         

>  <KEYWDS>
    TRANSFERASE                                                           

>  <EXPDTA>
    X-RAY DIFFRACTION                                                     

>  <AUTHOR>
    P.A.HARRIS,M.CHEUNG,R.N.HUNTER,M.L.BROWN,J.M.VEAL,R.T.NOLTE,L.WANG,   
   2 W.LIU,R.M.CROSBY,J.H.JOHNSON,A.H.EPPERLY,R.KUMAR,D.K.LUTTRELL,       
   3 J.A.STAFFORD                                                         

>  <REVDAT>
   4   11-OCT-17 1Y6B    1       REMARK                                   
   3   13-JUL-11 1Y6B    1       VERSN                                    
   2   24-FEB-09 1Y6B    1       VERSN                                    
   1   07-JUN-05 1Y6B    0                                                

>  <JRNL>
      AUTH   P.A.HARRIS,M.CHEUNG,R.N.HUNTER,M.L.BROWN,J.M.VEAL,R.T.NOLTE, 
      AUTH 2 L.WANG,W.LIU,R.M.CROSBY,J.H.JOHNSON,A.H.EPPERLY,R.KUMAR,     
      AUTH 3 D.K.LUTTRELL,J.A.STAFFORD                                    
      TITL   DISCOVERY AND EVALUATION OF 2-ANILINO-5-ARYLOXAZOLES AS A    
      TITL 2 NOVEL CLASS OF VEGFR2 KINASE INHIBITORS.                     
      REF    J.MED.CHEM.                   V.  48  1610 2005              
      REFN                   ISSN 0022-2623                               
      PMID   15743202                                                     
      DOI    10.1021/JM049538W                                            

>  <REMARK>
   2                                                                      
   2 RESOLUTION.    2.10 ANGSTROMS.                                       
   3                                                                      
   3 REFINEMENT.                                                          
   3   PROGRAM     : REFMAC 5.2.0005                                      
   3   AUTHORS     : MURSHUDOV,VAGIN,DODSON                               
   3                                                                      
   3    REFINEMENT TARGET : MAXIMUM LIKELIHOOD                            
   3                                                                      
   3  DATA USED IN REFINEMENT.                                            
   3   RESOLUTION RANGE HIGH (ANGSTROMS) : 2.10                           
   3   RESOLUTION RANGE LOW  (ANGSTROMS) : 16.60                          
   3   DATA CUTOFF            (SIGMA(F)) : NULL                           
   3   COMPLETENESS FOR RANGE        (%) : 99.7                           
   3   NUMBER OF REFLECTIONS             : 19994                          
   3                                                                      
   3  FIT TO DATA USED IN REFINEMENT.                                     
   3   CROSS-VALIDATION METHOD          : THROUGHOUT                      
   3   FREE R VALUE TEST SET SELECTION  : RANDOM                          
   3   R VALUE     (WORKING + TEST SET) : 0.194                           
   3   R VALUE            (WORKING SET) : 0.192                           
   3   FREE R VALUE                     : 0.236                           
   3   FREE R VALUE TEST SET SIZE   (%) : 3.300                           
   3   FREE R VALUE TEST SET COUNT      : 675                             
   3                                                                      
   3  FIT IN THE HIGHEST RESOLUTION BIN.                                  
   3   TOTAL NUMBER OF BINS USED           : 20                           
   3   BIN RESOLUTION RANGE HIGH       (A) : 2.10                         
   3   BIN RESOLUTION RANGE LOW        (A) : 2.15                         
   3   REFLECTION IN BIN     (WORKING SET) : 1429                         
   3   BIN COMPLETENESS (WORKING+TEST) (%) : 98.86                        
   3   BIN R VALUE           (WORKING SET) : 0.2170                       
   3   BIN FREE R VALUE SET COUNT          : 39                           
   3   BIN FREE R VALUE                    : 0.3380                       
   3                                                                      
   3  NUMBER OF NON-HYDROGEN ATOMS USED IN REFINEMENT.                    
   3   PROTEIN ATOMS            : 2135                                    
   3   NUCLEIC ACID ATOMS       : 0                                       
   3   HETEROGEN ATOMS          : 34                                      
   3   SOLVENT ATOMS            : 151                                     
   3                                                                      
   3  B VALUES.                                                           
   3   B VALUE TYPE : LIKELY RESIDUAL                                     
   3   FROM WILSON PLOT           (A**2) : 36.00                          
   3   MEAN B VALUE      (OVERALL, A**2) : 35.60                          
   3   OVERALL ANISOTROPIC B VALUE.                                       
   3    B11 (A**2) : 1.65000                                              
   3    B22 (A**2) : -0.02000                                             
   3    B33 (A**2) : -1.63000                                             
   3    B12 (A**2) : 0.00000                                              
   3    B13 (A**2) : 0.00000                                              
   3    B23 (A**2) : 0.00000                                              
   3                                                                      
   3  ESTIMATED OVERALL COORDINATE ERROR.                                 
   3   ESU BASED ON R VALUE                            (A): 0.190         
   3   ESU BASED ON FREE R VALUE                       (A): 0.171         
   3   ESU BASED ON MAXIMUM LIKELIHOOD                 (A): 0.124         
   3   ESU FOR B VALUES BASED ON MAXIMUM LIKELIHOOD (A**2): 8.890         
   3                                                                      
   3 CORRELATION COEFFICIENTS.                                            
   3   CORRELATION COEFFICIENT FO-FC      : 0.955                         
   3   CORRELATION COEFFICIENT FO-FC FREE : 0.935                         
   3                                                                      
   3  RMS DEVIATIONS FROM IDEAL VALUES        COUNT    RMS    WEIGHT      
   3   BOND LENGTHS REFINED ATOMS        (A):  2224 ; 0.016 ; 0.022       
   3   BOND LENGTHS OTHERS               (A):  2048 ; 0.002 ; 0.020       
   3   BOND ANGLES REFINED ATOMS   (DEGREES):  3003 ; 1.539 ; 1.982       
   3   BOND ANGLES OTHERS          (DEGREES):  4751 ; 0.981 ; 3.000       
   3   TORSION ANGLES, PERIOD 1    (DEGREES):   261 ; 6.620 ; 5.000       
   3   TORSION ANGLES, PERIOD 2    (DEGREES):    96 ;32.100 ;22.708       
   3   TORSION ANGLES, PERIOD 3    (DEGREES):   388 ;15.055 ;15.000       
   3   TORSION ANGLES, PERIOD 4    (DEGREES):    17 ;23.264 ;15.000       
   3   CHIRAL-CENTER RESTRAINTS       (A**3):   326 ; 0.096 ; 0.200       
   3   GENERAL PLANES REFINED ATOMS      (A):  2398 ; 0.007 ; 0.020       
   3   GENERAL PLANES OTHERS             (A):   475 ; 0.007 ; 0.020       
   3   NON-BONDED CONTACTS REFINED ATOMS (A):   427 ; 0.216 ; 0.200       
   3   NON-BONDED CONTACTS OTHERS        (A):  1935 ; 0.184 ; 0.200       
   3   NON-BONDED TORSION REFINED ATOMS  (A):  1045 ; 0.183 ; 0.200       
   3   NON-BONDED TORSION OTHERS         (A):  1195 ; 0.084 ; 0.200       
   3   H-BOND (X...Y) REFINED ATOMS      (A):   114 ; 0.192 ; 0.200       
   3   H-BOND (X...Y) OTHERS             (A):  NULL ;  NULL ;  NULL       
   3   POTENTIAL METAL-ION REFINED ATOMS (A):  NULL ;  NULL ;  NULL       
   3   POTENTIAL METAL-ION OTHERS        (A):  NULL ;  NULL ;  NULL       
   3   SYMMETRY VDW REFINED ATOMS        (A):     3 ; 0.037 ; 0.200       
   3   SYMMETRY VDW OTHERS               (A):    30 ; 0.161 ; 0.200       
   3   SYMMETRY H-BOND REFINED ATOMS     (A):     1 ; 0.499 ; 0.200       
   3   SYMMETRY H-BOND OTHERS            (A):  NULL ;  NULL ;  NULL       
   3   SYMMETRY METAL-ION REFINED ATOMS  (A):  NULL ;  NULL ;  NULL       
   3   SYMMETRY METAL-ION OTHERS         (A):  NULL ;  NULL ;  NULL       
   3                                                                      
   3  ISOTROPIC THERMAL FACTOR RESTRAINTS.     COUNT   RMS    WEIGHT      
   3   MAIN-CHAIN BOND REFINED ATOMS  (A**2):  1709 ; 1.362 ; 1.500       
   3   MAIN-CHAIN BOND OTHER ATOMS    (A**2):   537 ; 0.226 ; 1.500       
   3   MAIN-CHAIN ANGLE REFINED ATOMS (A**2):  2132 ; 1.545 ; 2.000       
   3   MAIN-CHAIN ANGLE OTHER ATOMS   (A**2):  NULL ;  NULL ;  NULL       
   3   SIDE-CHAIN BOND REFINED ATOMS  (A**2):  1071 ; 2.256 ; 3.000       
   3   SIDE-CHAIN BOND OTHER ATOMS    (A**2):  NULL ;  NULL ;  NULL       
   3   SIDE-CHAIN ANGLE REFINED ATOMS (A**2):   868 ; 3.213 ; 4.500       
   3   SIDE-CHAIN ANGLE OTHER ATOMS   (A**2):  NULL ;  NULL ;  NULL       
   3   LONG RANGE B REFINED ATOMS     (A**2):  NULL ;  NULL ;  NULL       
   3   LONG RANGE B OTHER ATOMS       (A**2):  NULL ;  NULL ;  NULL       
   3                                                                      
   3 ANISOTROPIC THERMAL FACTOR RESTRAINTS.    COUNT   RMS   WEIGHT       
   3   RIGID-BOND RESTRAINTS          (A**2):  NULL ;  NULL ;  NULL       
   3   SPHERICITY; FREE ATOMS         (A**2):  NULL ;  NULL ;  NULL       
   3   SPHERICITY; BONDED ATOMS       (A**2):  NULL ;  NULL ;  NULL       
   3                                                                      
   3  NCS RESTRAINTS STATISTICS                                           
   3   NUMBER OF DIFFERENT NCS GROUPS : NULL                              
   3                                                                      
   3  TLS DETAILS                                                         
   3   NUMBER OF TLS GROUPS  : 2                                          
   3                                                                      
   3   TLS GROUP : 1                                                      
   3    NUMBER OF COMPONENTS GROUP : 1                                    
   3    COMPONENTS        C SSSEQI   TO  C SSSEQI                         
   3    RESIDUE RANGE :   A   817        A   920                          
   3    ORIGIN FOR THE GROUP (A):   2.1180  34.2230   6.1800              
   3    T TENSOR                                                          
   3      T11:  -0.0728 T22:  -0.0119                                     
   3      T33:  -0.0658 T12:   0.0054                                     
   3      T13:   0.0011 T23:  -0.0100                                     
   3    L TENSOR                                                          
   3      L11:   1.6141 L22:   2.1684                                     
   3      L33:   2.8238 L12:   0.2375                                     
   3      L13:   0.0516 L23:   0.6725                                     
   3    S TENSOR                                                          
   3      S11:   0.0003 S12:   0.0706 S13:   0.0597                       
   3      S21:  -0.0606 S22:  -0.0193 S23:   0.1841                       
   3      S31:  -0.1453 S32:  -0.0900 S33:   0.0190                       
   3                                                                      
   3   TLS GROUP : 2                                                      
   3    NUMBER OF COMPONENTS GROUP : 1                                    
   3    COMPONENTS        C SSSEQI   TO  C SSSEQI                         
   3    RESIDUE RANGE :   A   921        A  1166                          
   3    ORIGIN FOR THE GROUP (A):   7.6840  41.4310  32.3890              
   3    T TENSOR                                                          
   3      T11:  -0.0008 T22:  -0.0514                                     
   3      T33:  -0.1174 T12:   0.0099                                     
   3      T13:  -0.0039 T23:  -0.0331                                     
   3    L TENSOR                                                          
   3      L11:   0.9418 L22:   2.5442                                     
   3      L33:   3.0375 L12:   0.5907                                     
   3      L13:   0.3750 L23:   2.0136                                     
   3    S TENSOR                                                          
   3      S11:  -0.0587 S12:  -0.0163 S13:   0.0285                       
   3      S21:   0.2259 S22:  -0.0183 S23:   0.0624                       
   3      S31:   0.0971 S32:  -0.0458 S33:   0.0770                       
   3                                                                      
   3  BULK SOLVENT MODELLING.                                             
   3   METHOD USED : MASK                                                 
   3   PARAMETERS FOR MASK CALCULATION                                    
   3   VDW PROBE RADIUS   : 1.20                                          
   3   ION PROBE RADIUS   : 0.80                                          
   3   SHRINKAGE RADIUS   : 0.80                                          
   3                                                                      
   3  OTHER REFINEMENT REMARKS: HYDROGENS HAVE BEEN ADDED IN THE RIDING   
   3  POSITIONS                                                           
   4                                                                      
   4 1Y6B COMPLIES WITH FORMAT V. 3.30, 13-JUL-11                         
 100                                                                      
 100 THIS ENTRY HAS BEEN PROCESSED BY RCSB ON 09-DEC-04.                  
 100 THE DEPOSITION ID IS D_1000031170.                                   
 200                                                                      
 200 EXPERIMENTAL DETAILS                                                 
 200  EXPERIMENT TYPE                : X-RAY DIFFRACTION                  
 200  DATE OF DATA COLLECTION        : NULL                               
 200  TEMPERATURE           (KELVIN) : NULL                               
 200  PH                             : NULL                               
 200  NUMBER OF CRYSTALS USED        : 1                                  
 200                                                                      
 200  SYNCHROTRON              (Y/N) : Y                                  
 200  RADIATION SOURCE               : APS                                
 200  BEAMLINE                       : 17-ID                              
 200  X-RAY GENERATOR MODEL          : NULL                               
 200  MONOCHROMATIC OR LAUE    (M/L) : M                                  
 200  WAVELENGTH OR RANGE        (A) : 1.0                                
 200  MONOCHROMATOR                  : NULL                               
 200  OPTICS                         : NULL                               
 200                                                                      
 200  DETECTOR TYPE                  : NULL                               
 200  DETECTOR MANUFACTURER          : NULL                               
 200  INTENSITY-INTEGRATION SOFTWARE : MAR                                
 200  DATA SCALING SOFTWARE          : SCALEPACK                          
 200                                                                      
 200  NUMBER OF UNIQUE REFLECTIONS   : 20768                              
 200  RESOLUTION RANGE HIGH      (A) : 2.100                              
 200  RESOLUTION RANGE LOW       (A) : 20.000                             
 200  REJECTION CRITERIA  (SIGMA(I)) : -3.000                             
 200                                                                      
 200 OVERALL.                                                             
 200  COMPLETENESS FOR RANGE     (%) : 99.5                               
 200  DATA REDUNDANCY                : 6.790                              
 200  R MERGE                    (I) : 0.04500                            
 200  R SYM                      (I) : NULL                               
 200  <I/SIGMA(I)> FOR THE DATA SET  : 42.9000                            
 200                                                                      
 200 IN THE HIGHEST RESOLUTION SHELL.                                     
 200  HIGHEST RESOLUTION SHELL, RANGE HIGH (A) : 2.10                     
 200  HIGHEST RESOLUTION SHELL, RANGE LOW  (A) : 2.17                     
 200  COMPLETENESS FOR SHELL     (%) : 99.1                               
 200  DATA REDUNDANCY IN SHELL       : NULL                               
 200  R MERGE FOR SHELL          (I) : 0.35500                            
 200  R SYM FOR SHELL            (I) : NULL                               
 200  <I/SIGMA(I)> FOR SHELL         : 5.460                              
 200                                                                      
 200 DIFFRACTION PROTOCOL: SINGLE WAVELENGTH                              
 200 METHOD USED TO DETERMINE THE STRUCTURE: MOLECULAR REPLACEMENT        
 200 SOFTWARE USED: AMORE                                                 
 200 STARTING MODEL: NULL                                                 
 200                                                                      
 200 REMARK: NULL                                                         
 280                                                                      
 280 CRYSTAL                                                              
 280 SOLVENT CONTENT, VS   (%): 40.17                                     
 280 MATTHEWS COEFFICIENT, VM (ANGSTROMS**3/DA): 2.06                     
 280                                                                      
 280 CRYSTALLIZATION CONDITIONS: NULL                                     
 290                                                                      
 290 CRYSTALLOGRAPHIC SYMMETRY                                            
 290 SYMMETRY OPERATORS FOR SPACE GROUP: P 21 21 21                       
 290                                                                      
 290      SYMOP   SYMMETRY                                                
 290     NNNMMM   OPERATOR                                                
 290       1555   X,Y,Z                                                   
 290       2555   -X+1/2,-Y,Z+1/2                                         
 290       3555   -X,Y+1/2,-Z+1/2                                         
 290       4555   X+1/2,-Y+1/2,-Z                                         
 290                                                                      
 290     WHERE NNN -> OPERATOR NUMBER                                     
 290           MMM -> TRANSLATION VECTOR                                  
 290                                                                      
 290 CRYSTALLOGRAPHIC SYMMETRY TRANSFORMATIONS                            
 290 THE FOLLOWING TRANSFORMATIONS OPERATE ON THE ATOM/HETATM             
 290 RECORDS IN THIS ENTRY TO PRODUCE CRYSTALLOGRAPHICALLY                
 290 RELATED MOLECULES.                                                   
 290   SMTRY1   1  1.000000  0.000000  0.000000        0.00000            
 290   SMTRY2   1  0.000000  1.000000  0.000000        0.00000            
 290   SMTRY3   1  0.000000  0.000000  1.000000        0.00000            
 290   SMTRY1   2 -1.000000  0.000000  0.000000       18.77200            
 290   SMTRY2   2  0.000000 -1.000000  0.000000        0.00000            
 290   SMTRY3   2  0.000000  0.000000  1.000000       48.38350            
 290   SMTRY1   3 -1.000000  0.000000  0.000000        0.00000            
 290   SMTRY2   3  0.000000  1.000000  0.000000       47.16650            
 290   SMTRY3   3  0.000000  0.000000 -1.000000       48.38350            
 290   SMTRY1   4  1.000000  0.000000  0.000000       18.77200            
 290   SMTRY2   4  0.000000 -1.000000  0.000000       47.16650            
 290   SMTRY3   4  0.000000  0.000000 -1.000000        0.00000            
 290                                                                      
 290 REMARK: NULL                                                         
 300                                                                      
 300 BIOMOLECULE: 1                                                       
 300 SEE REMARK 350 FOR THE AUTHOR PROVIDED AND/OR PROGRAM                
 300 GENERATED ASSEMBLY INFORMATION FOR THE STRUCTURE IN                  
 300 THIS ENTRY. THE REMARK MAY ALSO PROVIDE INFORMATION ON               
 300 BURIED SURFACE AREA.                                                 
 350                                                                      
 350 COORDINATES FOR A COMPLETE MULTIMER REPRESENTING THE KNOWN           
 350 BIOLOGICALLY SIGNIFICANT OLIGOMERIZATION STATE OF THE                
 350 MOLECULE CAN BE GENERATED BY APPLYING BIOMT TRANSFORMATIONS          
 350 GIVEN BELOW.  BOTH NON-CRYSTALLOGRAPHIC AND                          
 350 CRYSTALLOGRAPHIC OPERATIONS ARE GIVEN.                               
 350                                                                      
 350 BIOMOLECULE: 1                                                       
 350 AUTHOR DETERMINED BIOLOGICAL UNIT: MONOMERIC                         
 350 APPLY THE FOLLOWING TO CHAINS: A                                     
 350   BIOMT1   1  1.000000  0.000000  0.000000        0.00000            
 350   BIOMT2   1  0.000000  1.000000  0.000000        0.00000            
 350   BIOMT3   1  0.000000  0.000000  1.000000        0.00000            
 465                                                                      
 465 MISSING RESIDUES                                                     
 465 THE FOLLOWING RESIDUES WERE NOT LOCATED IN THE                       
 465 EXPERIMENT. (M=MODEL NUMBER; RES=RESIDUE NAME; C=CHAIN               
 465 IDENTIFIER; SSSEQ=SEQUENCE NUMBER; I=INSERTION CODE.)                
 465                                                                      
 465   M RES C SSSEQI                                                     
 465     MET A   804                                                      
 465     ASP A   805                                                      
 465     PRO A   806                                                      
 465     ASP A   807                                                      
 465     GLU A   808                                                      
 465     LEU A   809                                                      
 465     PRO A   810                                                      
 465     LEU A   811                                                      
 465     ASP A   812                                                      
 465     GLU A   813                                                      
 465     HIS A   814                                                      
 465     CYS A   815                                                      
 465     GLU A   816                                                      
 465     ALA A   842                                                      
 465     PHE A   843                                                      
 465     GLU A   870                                                      
 465     GLY A   871                                                      
 465     LYS A   937                                                      
 465     THR A   938                                                      
 465     LYS A   939                                                      
 465     GLY A   940                                                      
 465     ALA A   941                                                      
 465     ARG A   942                                                      
 465     PHE A   943                                                      
 465     ARG A   944                                                      
 465     GLN A   945                                                      
 465     GLY A   946                                                      
 465     LYS A   947                                                      
 465     ASP A   948                                                      
 465     TYR A   949                                                      
 465     VAL A   950                                                      
 465     GLY A   951                                                      
 465     ALA A   952                                                      
 465     ILE A   953                                                      
 465     PRO A   954                                                      
 465     VAL A   955                                                      
 465     ASP A   956                                                      
 465     LEU A   957                                                      
 465     LYS A   958                                                      
 465     ARG A   959                                                      
 465     ARG A   960                                                      
 465     LEU A   961                                                      
 465     ASP A   962                                                      
 465     SER A   963                                                      
 465     ILE A   964                                                      
 465     THR A   965                                                      
 465     SER A   966                                                      
 465     SER A   967                                                      
 465     GLN A   968                                                      
 465     SER A   969                                                      
 465     SER A   970                                                      
 465     ALA A   971                                                      
 465     SER A   972                                                      
 465     SER A   973                                                      
 465     GLY A   974                                                      
 465     PHE A   975                                                      
 465     VAL A   976                                                      
 465     GLU A   977                                                      
 465     GLU A   978                                                      
 465     LYS A   979                                                      
 465     SER A   980                                                      
 465     LEU A   981                                                      
 465     SER A   982                                                      
 465     ASP A   983                                                      
 465     VAL A   984                                                      
 465     GLU A   985                                                      
 465     GLU A   986                                                      
 465     GLU A   987                                                      
 465     GLU A   988                                                      
 465     ALA A   989                                                      
 465     PRO A   990                                                      
 465     GLU A   991                                                      
 465     ASP A   992                                                      
 465     LEU A   993                                                      
 465     TYR A   994                                                      
 465     LYS A   995                                                      
 465     ASP A   996                                                      
 465     GLY A  1046                                                      
 465     LEU A  1047                                                      
 465     ALA A  1048                                                      
 465     ARG A  1049                                                      
 465     ASP A  1050                                                      
 465     ILE A  1051                                                      
 465     TYR A  1052                                                      
 465     LYS A  1053                                                      
 465     ASP A  1054                                                      
 465     PRO A  1055                                                      
 465     ASP A  1056                                                      
 465     TYR A  1057                                                      
 465     VAL A  1058                                                      
 465     ARG A  1059                                                      
 465     LYS A  1060                                                      
 465     GLY A  1061                                                      
 465     ASP A  1062                                                      
 465     ALA A  1063                                                      
 465     ARG A  1064                                                      
 465     LEU A  1065                                                      
 465     GLN A  1167                                                      
 465     GLN A  1168                                                      
 465     ASP A  1169                                                      
 500                                                                      
 500 GEOMETRY AND STEREOCHEMISTRY                                         
 500 SUBTOPIC: TORSION ANGLES                                             
 500                                                                      
 500 TORSION ANGLES OUTSIDE THE EXPECTED RAMACHANDRAN REGIONS:            
 500 (M=MODEL NUMBER; RES=RESIDUE NAME; C=CHAIN IDENTIFIER;               
 500 SSEQ=SEQUENCE NUMBER; I=INSERTION CODE).                             
 500                                                                      
 500 STANDARD TABLE:                                                      
 500 FORMAT:(10X,I3,1X,A3,1X,A1,I4,A1,4X,F7.2,3X,F7.2)                    
 500                                                                      
 500 EXPECTED VALUES: GJ KLEYWEGT AND TA JONES (1996). PHI/PSI-           
 500 CHOLOGY: RAMACHANDRAN REVISITED. STRUCTURE 4, 1395 - 1400            
 500                                                                      
 500  M RES CSSEQI        PSI       PHI                                   
 500    LYS A 856      -12.94     75.92                                   
 500    ALA A 858       48.83    -77.44                                   
 500    ARG A1025      -12.31     87.46                                   
 500    ASP A1026       56.20   -142.60                                   
 500    SER A1035     -165.52   -114.28                                   
 500    ASN A1038       29.33     49.59                                   
 500    ARG A1078       -0.45     64.77                                   
 500                                                                      
 500 REMARK: NULL                                                         
 800                                                                      
 800 SITE                                                                 
 800 SITE_IDENTIFIER: AC1                                                 
 800 EVIDENCE_CODE: SOFTWARE                                              
 800 SITE_DESCRIPTION: BINDING SITE FOR RESIDUE AAX A 201                 
 900                                                                      
 900 RELATED ENTRIES                                                      
 900 RELATED ID: 1VR2   RELATED DB: PDB                                   
 900 UNLIGANDED STRUCTURE                                                 
 900 RELATED ID: 1Y6A   RELATED DB: PDB                                   
 900 CRYSTAL STRUCTURE OF VEGFR2 IN COMPLEX WITH A 2-ANILINO-5-ARYL-      
 900 OXAZOLE INHIBITOR                                                    

>  <DBREF>
 1Y6B A  804  1169  UNP    P35968   VGFR2_HUMAN    806   1171             

>  <SEQRES>
   1 A  366  MET ASP PRO ASP GLU LEU PRO LEU ASP GLU HIS CYS GLU          
   2 A  366  ARG LEU PRO TYR ASP ALA SER LYS TRP GLU PHE PRO ARG          
   3 A  366  ASP ARG LEU LYS LEU GLY LYS PRO LEU GLY ARG GLY ALA          
   4 A  366  PHE GLY GLN VAL ILE GLU ALA ASP ALA PHE GLY ILE ASP          
   5 A  366  LYS THR ALA THR CYS ARG THR VAL ALA VAL LYS MET LEU          
   6 A  366  LYS GLU GLY ALA THR HIS SER GLU HIS ARG ALA LEU MET          
   7 A  366  SER GLU LEU LYS ILE LEU ILE HIS ILE GLY HIS HIS LEU          
   8 A  366  ASN VAL VAL ASN LEU LEU GLY ALA CYS THR LYS PRO GLY          
   9 A  366  GLY PRO LEU MET VAL ILE VAL GLU PHE CYS LYS PHE GLY          
  10 A  366  ASN LEU SER THR TYR LEU ARG SER LYS ARG ASN GLU PHE          
  11 A  366  VAL PRO TYR LYS THR LYS GLY ALA ARG PHE ARG GLN GLY          
  12 A  366  LYS ASP TYR VAL GLY ALA ILE PRO VAL ASP LEU LYS ARG          
  13 A  366  ARG LEU ASP SER ILE THR SER SER GLN SER SER ALA SER          
  14 A  366  SER GLY PHE VAL GLU GLU LYS SER LEU SER ASP VAL GLU          
  15 A  366  GLU GLU GLU ALA PRO GLU ASP LEU TYR LYS ASP PHE LEU          
  16 A  366  THR LEU GLU HIS LEU ILE CYS TYR SER PHE GLN VAL ALA          
  17 A  366  LYS GLY MET GLU PHE LEU ALA SER ARG LYS CYS ILE HIS          
  18 A  366  ARG ASP LEU ALA ALA ARG ASN ILE LEU LEU SER GLU LYS          
  19 A  366  ASN VAL VAL LYS ILE CYS ASP PHE GLY LEU ALA ARG ASP          
  20 A  366  ILE TYR LYS ASP PRO ASP TYR VAL ARG LYS GLY ASP ALA          
  21 A  366  ARG LEU PRO LEU LYS TRP MET ALA PRO GLU THR ILE PHE          
  22 A  366  ASP ARG VAL TYR THR ILE GLN SER ASP VAL TRP SER PHE          
  23 A  366  GLY VAL LEU LEU TRP GLU ILE PHE SER LEU GLY ALA SER          
  24 A  366  PRO TYR PRO GLY VAL LYS ILE ASP GLU GLU PHE CYS ARG          
  25 A  366  ARG LEU LYS GLU GLY THR ARG MET ARG ALA PRO ASP TYR          
  26 A  366  THR THR PRO GLU MET TYR GLN THR MET LEU ASP CYS TRP          
  27 A  366  HIS GLY GLU PRO SER GLN ARG PRO THR PHE SER GLU LEU          
  28 A  366  VAL GLU HIS LEU GLY ASN LEU LEU GLN ALA ASN ALA GLN          
  29 A  366  GLN ASP                                                      

>  <HET>
 AAX  A 201      34                                                       

>  <HETNAM>
     AAX N-(CYCLOPROPYLMETHYL)-4-(METHYLOXY)-3-({5-[3-(3-                 
   2 AAX  PYRIDINYL)PHENYL]-1,3-OXAZOL-2-YL}AMINO)                        
   3 AAX  BENZENESULFONAMIDE                                              

>  <FORMUL>
   2  AAX    C25 H24 N4 O4 S                                              
   3  HOH   *151(H2 O)                                                    

>  <HELIX>
   1   1 ASP A  821  GLU A  826  1                                   6
   2   2 PRO A  828  ASP A  830  1                                   3
   3   3 THR A  873  GLY A  891  1                                  19
   4   4 ASN A  921  LYS A  929  1                                   9
   5   5 THR A  999  ARG A 1020  1                                  22
   6   6 ALA A 1028  ARG A 1030  1                                   3
   7   7 PRO A 1066  ARG A 1078  1                                  13
   8   8 THR A 1081  SER A 1098  1                                  18
   9   9 ASP A 1110  GLY A 1120  1                                  11
  10  10 THR A 1130  TRP A 1141  1                                  12
  11  11 GLU A 1144  ARG A 1148  1                                   5
  12  12 THR A 1150  ALA A 1166  1                                  17

>  <SHEET>
   1   1 1 LEU A 832  GLY A 839  0
   2   2 1 GLN A 845  PHE A 852  0
   3   3 1 CYS A 860  MET A 867  0
   4   4 1 LEU A 899  CYS A 903  0
   5   5 1 MET A 911  GLU A 915  0
   6   6 1 ILE A1032  LEU A1034  0
   7   7 1 VAL A1040  ILE A1042  0

>  <SITE>
   1 AC1 16 HOH A  75  HOH A 128  LEU A 838  ALA A 864                    
   2 AC1 16 LYS A 866  GLU A 883  VAL A 912  VAL A 914                    
   3 AC1 16 GLU A 915  PHE A 916  CYS A 917  LYS A 918                    
   4 AC1 16 GLY A 920  ASN A 921  LEU A1033  PHE A1045                    

>  <ORIGX1>
      1.000000  0.000000  0.000000        0.00000                         

>  <ORIGX2>
      0.000000  1.000000  0.000000        0.00000                         

>  <ORIGX3>
      0.000000  0.000000  1.000000        0.00000                         

>  <SCALE1>
      0.026635  0.000000  0.000000        0.00000                         

>  <SCALE2>
      0.000000  0.010601  0.000000        0.00000                         

>  <SCALE3>
      0.000000  0.000000  0.010334        0.00000                         

$$$$
