MODEL 1
REMARK WATVina v2023.12.13
REMARK WATVINA RESULT:      -9.7
REMARK SCOREN: vdw     :hbond   :elec    :desol   :clash   :torsion  
REMARK SCOREV: -49.45  :-1.97   :-3.26   :0.00    :0.26    :0.10    
REMARK  Name = AAX
REMARK  9 active torsions:
REMARK  status: ('A' for Active; 'I' for Inactive)
REMARK    1  A    between atoms: _2  and  _4
REMARK    2  A    between atoms: _2  and  _9
REMARK    3  A    between atoms: _4  and  _5
REMARK    4  A    between atoms: _5  and  _6
REMARK    5  A    between atoms: _13  and  _17
REMARK    6  A    between atoms: _14  and  _15
REMARK    7  A    between atoms: _17  and  _18
REMARK    8  A    between atoms: _20  and  _23
REMARK    9  A    between atoms: _25  and  _29
ROOT
ATOM      9  C5  UNL     1       0.375  28.539  20.769  0.00 -0.20     0.084 A 
ATOM     10  C6  UNL     1       0.118  27.208  21.075  0.00 -0.13    -0.038 A 
ATOM     11  C7  UNL     1       0.838  26.183  20.460  0.00 -0.15    -0.016 A 
ATOM     12  C8  UNL     1       1.376  28.803  19.802  0.00 -0.20    -0.015 A 
ATOM     13  C9  UNL     1       2.096  27.780  19.143  0.00 -0.27     0.086 A 
ATOM     14  C10 UNL     1       1.813  26.466  19.484  0.00 -0.23     0.142 A 
ATOM     43  H9  UNL     1      -0.627  26.940  21.822  0.00 -0.02     0.064 H 
ATOM     44  H10 UNL     1       0.613  25.156  20.736  0.00 -0.02     0.066 H 
ATOM     45  H11 UNL     1       1.607  29.844  19.585  0.00 -0.07     0.066 H 
ENDROOT
BRANCH 13 17
ATOM     17  N2  UNL     1       3.016  28.006  18.115  0.00 -0.37    -0.306 N 
ATOM     46  H12 UNL     1       3.674  27.244  17.955  0.00 -0.40     0.171 HD
BRANCH 17 18
ATOM     18  C12 UNL     1       2.989  29.075  17.278  0.00 -0.33     0.299 A 
ATOM     19  O4  UNL     1       1.909  29.873  17.197  0.00 -0.17    -0.423 O 
ATOM     20  C13 UNL     1       2.298  30.885  16.382  0.00 -0.24     0.156 A 
ATOM     21  C14 UNL     1       3.589  30.627  15.921  0.00 -0.45     0.076 A 
ATOM     22  N3  UNL     1       4.044  29.484  16.508  0.00 -0.77    -0.201 NA
ATOM     47  H13 UNL     1       4.189  31.216  15.241  0.00 -0.14     0.088 H 
BRANCH 20 23
ATOM     23  C15 UNL     1       1.308  31.902  16.039  0.00 -0.26     0.020 A 
ATOM     24  C16 UNL     1       1.256  32.445  14.756  0.00 -0.30    -0.043 A 
ATOM     25  C17 UNL     1       0.267  33.376  14.434  0.00 -0.29    -0.016 A 
ATOM     26  C18 UNL     1      -0.718  33.717  15.383  0.00 -0.22    -0.054 A 
ATOM     27  C19 UNL     1      -0.692  33.101  16.631  0.00 -0.20    -0.061 A 
ATOM     28  C20 UNL     1       0.299  32.200  16.962  0.00 -0.20    -0.051 A 
ATOM     48  H14 UNL     1       2.026  32.193  14.034  0.00 -0.07     0.064 H 
ATOM     49  H15 UNL     1      -1.498  34.423  15.139  0.00 -0.07     0.063 H 
ATOM     50  H16 UNL     1      -1.444  33.354  17.374  0.00 -0.03     0.062 H 
ATOM     51  H17 UNL     1       0.314  31.765  17.959  0.00 -0.03     0.063 H 
BRANCH 25 29
ATOM     29  C21 UNL     1       0.264  33.984  13.067  0.00 -0.39     0.000 A 
ATOM     30  C22 UNL     1       0.060  35.362  12.883  0.00 -0.41     0.035 A 
ATOM     31  N4  UNL     1       0.087  35.929  11.656  0.00 -0.81    -0.264 NA
ATOM     32  C23 UNL     1       0.297  35.177  10.570  0.00 -0.47     0.027 A 
ATOM     33  C24 UNL     1       0.518  33.802  10.691  0.00 -0.30    -0.043 A 
ATOM     34  C25 UNL     1       0.483  33.188  11.946  0.00 -0.25    -0.051 A 
ATOM     52  H18 UNL     1      -0.117  36.030  13.712  0.00 -0.09     0.085 H 
ATOM     53  H19 UNL     1       0.340  35.682   9.615  0.00 -0.08     0.084 H 
ATOM     54  H20 UNL     1       0.752  33.209   9.816  0.00 -0.10     0.064 H 
ATOM     55  H21 UNL     1       0.647  32.117  12.014  0.00 -0.13     0.063 H 
ENDBRANCH 25 29
ENDBRANCH 20 23
ENDBRANCH 17 18
ENDBRANCH 13 17
BRANCH 9 2
ATOM      1  O1  UNL     1       0.224  30.931  21.486  0.00 -0.15    -0.207 OA
ATOM      2  S1  UNL     1      -0.468  29.705  21.571  0.00 -0.40     0.240 S 
ATOM      3  O2  UNL     1      -0.514  29.241  22.920  0.00 -0.46    -0.207 OA
BRANCH 2 4
ATOM      4  N1  UNL     1      -1.887  29.961  20.897  0.00 -0.08    -0.211 N 
ATOM     35  H1  UNL     1      -2.658  29.405  21.295  0.00 -0.01     0.141 HD
BRANCH 4 5
ATOM      5  C1  UNL     1      -1.909  30.181  19.450  0.00 -0.12     0.014 C 
ATOM     36  H2  UNL     1      -1.293  31.044  19.180  0.00 -0.02     0.044 H 
ATOM     37  H3  UNL     1      -1.483  29.297  18.962  0.00 -0.04     0.044 H 
BRANCH 5 6
ATOM      6  C2  UNL     1      -3.321  30.364  18.895  0.00 -0.22    -0.028 C 
ATOM      7  C3  UNL     1      -3.378  30.829  17.441  0.00 -0.40    -0.049 C 
ATOM      8  C4  UNL     1      -3.756  31.783  18.566  0.00 -0.22    -0.049 C 
ATOM     38  H4  UNL     1      -4.038  29.631  19.234  0.00 -0.06     0.032 H 
ATOM     39  H5  UNL     1      -2.446  31.000  16.915  0.00 -0.08     0.027 H 
ATOM     40  H6  UNL     1      -4.177  30.455  16.817  0.00 -0.13     0.027 H 
ATOM     41  H7  UNL     1      -3.085  32.593  18.828  0.00 -0.02     0.027 H 
ATOM     42  H8  UNL     1      -4.805  32.028  18.699  0.00 -0.07     0.027 H 
ENDBRANCH 5 6
ENDBRANCH 4 5
ENDBRANCH 2 4
ENDBRANCH 9 2
BRANCH 14 15
ATOM     15  O3  UNL     1       2.514  25.482  18.839  0.00 -0.15    -0.495 OA
ATOM     16  C11 UNL     1       2.668  24.139  19.324  0.00 -0.22     0.078 C 
ATOM     56  H22 UNL     1       3.260  23.600  18.592  0.00 -0.06     0.067 H 
ATOM     57  H23 UNL     1       1.691  23.657  19.413  0.00 -0.03     0.067 H 
ATOM     58  H24 UNL     1       3.188  24.144  20.281  0.00 -0.07     0.067 H 
ENDBRANCH 14 15
TORSDOF 9
ENDMDL
MODEL 2
REMARK WATVina v2023.12.13
REMARK WATVINA RESULT:      -9.2
REMARK SCOREN: vdw     :hbond   :elec    :desol   :clash   :torsion  
REMARK SCOREV: -44.44  :-2.11   :-3.98   :0.00    :0.25    :0.18    
REMARK  Name = AAX
REMARK  9 active torsions:
REMARK  status: ('A' for Active; 'I' for Inactive)
REMARK    1  A    between atoms: _2  and  _4
REMARK    2  A    between atoms: _2  and  _9
REMARK    3  A    between atoms: _4  and  _5
REMARK    4  A    between atoms: _5  and  _6
REMARK    5  A    between atoms: _13  and  _17
REMARK    6  A    between atoms: _14  and  _15
REMARK    7  A    between atoms: _17  and  _18
REMARK    8  A    between atoms: _20  and  _23
REMARK    9  A    between atoms: _25  and  _29
ROOT
ATOM      9  C5  UNL     1       1.179  25.065  19.449  0.00 -0.17     0.084 A 
ATOM     10  C6  UNL     1       0.153  25.666  20.168  0.00 -0.11    -0.038 A 
ATOM     11  C7  UNL     1       0.083  27.055  20.287  0.00 -0.14    -0.016 A 
ATOM     12  C8  UNL     1       2.148  25.916  18.864  0.00 -0.23    -0.015 A 
ATOM     13  C9  UNL     1       2.116  27.323  18.998  0.00 -0.29     0.086 A 
ATOM     14  C10 UNL     1       1.071  27.881  19.718  0.00 -0.19     0.142 A 
ATOM     43  H9  UNL     1      -0.632  25.068  20.627  0.00 -0.02     0.064 H 
ATOM     44  H10 UNL     1      -0.742  27.484  20.849  0.00 -0.02     0.066 H 
ATOM     45  H11 UNL     1       2.934  25.454  18.269  0.00 -0.10     0.066 H 
ENDROOT
BRANCH 13 17
ATOM     17  N2  UNL     1       3.112  28.179  18.518  0.00 -0.29    -0.306 N 
ATOM     46  H12 UNL     1       4.034  28.032  18.927  0.00 -0.56     0.171 HD
BRANCH 17 18
ATOM     18  C12 UNL     1       2.948  29.057  17.495  0.00 -0.29     0.299 A 
ATOM     19  O4  UNL     1       1.932  29.939  17.486  0.00 -0.17    -0.423 O 
ATOM     20  C13 UNL     1       2.173  30.718  16.403  0.00 -0.26     0.156 A 
ATOM     21  C14 UNL     1       3.293  30.231  15.731  0.00 -0.42     0.076 A 
ATOM     22  N3  UNL     1       3.806  29.183  16.437  0.00 -0.73    -0.201 NA
ATOM     47  H13 UNL     1       3.744  30.602  14.821  0.00 -0.10     0.088 H 
BRANCH 20 23
ATOM     23  C15 UNL     1       1.193  31.752  16.077  0.00 -0.26     0.020 A 
ATOM     24  C16 UNL     1       1.167  32.338  14.812  0.00 -0.29    -0.043 A 
ATOM     25  C17 UNL     1       0.188  33.284  14.504  0.00 -0.26    -0.016 A 
ATOM     26  C18 UNL     1      -0.813  33.598  15.447  0.00 -0.18    -0.054 A 
ATOM     27  C19 UNL     1      -0.812  32.940  16.673  0.00 -0.19    -0.061 A 
ATOM     28  C20 UNL     1       0.170  32.024  16.991  0.00 -0.20    -0.051 A 
ATOM     48  H14 UNL     1       1.948  32.106  14.095  0.00 -0.07     0.064 H 
ATOM     49  H15 UNL     1      -1.585  34.316  15.213  0.00 -0.07     0.063 H 
ATOM     50  H16 UNL     1      -1.575  33.172  17.411  0.00 -0.03     0.062 H 
ATOM     51  H17 UNL     1       0.164  31.556  17.973  0.00 -0.03     0.063 H 
BRANCH 25 29
ATOM     29  C21 UNL     1       0.212  33.938  13.159  0.00 -0.39     0.000 A 
ATOM     30  C22 UNL     1       0.039  35.326  13.019  0.00 -0.41     0.035 A 
ATOM     31  N4  UNL     1       0.092  35.933  11.813  0.00 -0.82    -0.264 NA
ATOM     32  C23 UNL     1       0.297  35.214  10.704  0.00 -0.49     0.027 A 
ATOM     33  C24 UNL     1       0.487  33.831  10.781  0.00 -0.32    -0.043 A 
ATOM     34  C25 UNL     1       0.425  33.175  12.014  0.00 -0.31    -0.051 A 
ATOM     52  H18 UNL     1      -0.132  35.969  13.868  0.00 -0.08     0.085 H 
ATOM     53  H19 UNL     1       0.360  35.750   9.767  0.00 -0.11     0.084 H 
ATOM     54  H20 UNL     1       0.718  33.262   9.888  0.00 -0.14     0.064 H 
ATOM     55  H21 UNL     1       0.566  32.099  12.047  0.00 -0.13     0.063 H 
ENDBRANCH 25 29
ENDBRANCH 20 23
ENDBRANCH 17 18
ENDBRANCH 13 17
BRANCH 9 2
ATOM      1  O1  UNL     1       0.761  22.839  20.512  0.00 -0.04    -0.207 OA
ATOM      2  S1  UNL     1       1.174  23.425  19.297  0.00 -0.33     0.240 S 
ATOM      3  O2  UNL     1       2.533  23.094  19.011  0.00 -0.07    -0.207 OA
BRANCH 2 4
ATOM      4  N1  UNL     1       0.119  22.948  18.205  0.00 -0.22    -0.211 N 
ATOM     35  H1  UNL     1       0.376  23.174  17.233  0.00 -0.51     0.141 HD
BRANCH 4 5
ATOM      5  C1  UNL     1      -1.297  23.050  18.556  0.00 -0.10     0.014 C 
ATOM     36  H2  UNL     1      -1.447  22.866  19.625  0.00 -0.01     0.044 H 
ATOM     37  H3  UNL     1      -1.632  24.071  18.341  0.00  0.13     0.044 H 
BRANCH 5 6
ATOM      6  C2  UNL     1      -2.183  22.106  17.744  0.00 -0.28    -0.028 C 
ATOM      7  C3  UNL     1      -3.618  21.983  18.256  0.00 -0.16    -0.049 C 
ATOM      8  C4  UNL     1      -2.641  20.828  18.427  0.00 -0.15    -0.049 C 
ATOM     38  H4  UNL     1      -2.013  22.133  16.678  0.00 -0.10     0.032 H 
ATOM     39  H5  UNL     1      -3.905  22.548  19.135  0.00 -0.02     0.027 H 
ATOM     40  H6  UNL     1      -4.409  21.860  17.530  0.00 -0.05     0.027 H 
ATOM     41  H7  UNL     1      -2.241  20.607  19.410  0.00 -0.01     0.027 H 
ATOM     42  H8  UNL     1      -2.772  19.948  17.806  0.00 -0.02     0.027 H 
ENDBRANCH 5 6
ENDBRANCH 4 5
ENDBRANCH 2 4
ENDBRANCH 9 2
BRANCH 14 15
ATOM     15  O3  UNL     1       1.048  29.245  19.843  0.00 -0.13    -0.495 OA
ATOM     16  C11 UNL     1       0.368  29.957  20.889  0.00 -0.20     0.078 C 
ATOM     56  H22 UNL     1       0.545  31.015  20.724  0.00 -0.05     0.067 H 
ATOM     57  H23 UNL     1       0.780  29.678  21.862  0.00 -0.09     0.067 H 
ATOM     58  H24 UNL     1      -0.701  29.755  20.844  0.00 -0.02     0.067 H 
ENDBRANCH 14 15
TORSDOF 9
ENDMDL
MODEL 3
REMARK WATVina v2023.12.13
REMARK WATVINA RESULT:      -8.7
REMARK SCOREN: vdw     :hbond   :elec    :desol   :clash   :torsion  
REMARK SCOREV: -44.32  :-1.65   :-3.71   :0.00    :0.31    :0.20    
REMARK  Name = AAX
REMARK  9 active torsions:
REMARK  status: ('A' for Active; 'I' for Inactive)
REMARK    1  A    between atoms: _2  and  _4
REMARK    2  A    between atoms: _2  and  _9
REMARK    3  A    between atoms: _4  and  _5
REMARK    4  A    between atoms: _5  and  _6
REMARK    5  A    between atoms: _13  and  _17
REMARK    6  A    between atoms: _14  and  _15
REMARK    7  A    between atoms: _17  and  _18
REMARK    8  A    between atoms: _20  and  _23
REMARK    9  A    between atoms: _25  and  _29
ROOT
ATOM      9  C5  UNL     1       1.204  24.950  19.550  0.00 -0.18     0.084 A 
ATOM     10  C6  UNL     1       0.195  25.544  20.297  0.00 -0.12    -0.038 A 
ATOM     11  C7  UNL     1       0.112  26.932  20.409  0.00 -0.14    -0.016 A 
ATOM     12  C8  UNL     1       2.144  25.808  18.929  0.00 -0.24    -0.015 A 
ATOM     13  C9  UNL     1       2.099  27.216  19.054  0.00 -0.29     0.086 A 
ATOM     14  C10 UNL     1       1.071  27.767  19.803  0.00 -0.18     0.142 A 
ATOM     43  H9  UNL     1      -0.568  24.940  20.785  0.00 -0.02     0.064 H 
ATOM     44  H10 UNL     1      -0.699  27.356  20.995  0.00 -0.02     0.066 H 
ATOM     45  H11 UNL     1       2.916  25.351  18.311  0.00 -0.10     0.066 H 
ENDROOT
BRANCH 13 17
ATOM     17  N2  UNL     1       3.069  28.080  18.537  0.00 -0.28    -0.306 N 
ATOM     46  H12 UNL     1       4.006  27.947  18.917  0.00 -0.56     0.171 HD
BRANCH 17 18
ATOM     18  C12 UNL     1       2.863  28.949  17.514  0.00 -0.33     0.299 A 
ATOM     19  O4  UNL     1       1.845  29.829  17.539  0.00 -0.17    -0.423 O 
ATOM     20  C13 UNL     1       2.040  30.599  16.440  0.00 -0.26     0.156 A 
ATOM     21  C14 UNL     1       3.134  30.109  15.728  0.00 -0.39     0.076 A 
ATOM     22  N3  UNL     1       3.678  29.069  16.421  0.00 -0.74    -0.201 NA
ATOM     47  H13 UNL     1       3.548  30.473  14.798  0.00 -0.05     0.088 H 
BRANCH 20 23
ATOM     23  C15 UNL     1       1.046  31.628  16.145  0.00 -0.25     0.020 A 
ATOM     24  C16 UNL     1       1.057  32.304  14.926  0.00 -0.28    -0.043 A 
ATOM     25  C17 UNL     1       0.065  33.244  14.643  0.00 -0.23    -0.016 A 
ATOM     26  C18 UNL     1      -0.984  33.462  15.559  0.00 -0.09    -0.054 A 
ATOM     27  C19 UNL     1      -1.018  32.716  16.733  0.00 -0.17    -0.061 A 
ATOM     28  C20 UNL     1      -0.025  31.805  17.029  0.00 -0.20    -0.051 A 
ATOM     48  H14 UNL     1       1.876  32.146  14.231  0.00 -0.08     0.064 H 
ATOM     49  H15 UNL     1      -1.767  34.174  15.342  0.00 -0.05     0.063 H 
ATOM     50  H16 UNL     1      -1.819  32.873  17.450  0.00 -0.03     0.062 H 
ATOM     51  H17 UNL     1      -0.059  31.266  17.973  0.00 -0.03     0.063 H 
BRANCH 25 29
ATOM     29  C21 UNL     1       0.129  33.996  13.350  0.00 -0.38     0.000 A 
ATOM     30  C22 UNL     1      -0.086  35.383  13.302  0.00 -0.35     0.035 A 
ATOM     31  N4  UNL     1       0.001  36.079  12.147  0.00 -0.77    -0.264 NA
ATOM     32  C23 UNL     1       0.282  35.449  11.000  0.00 -0.47     0.027 A 
ATOM     33  C24 UNL     1       0.517  34.071  10.987  0.00 -0.35    -0.043 A 
ATOM     34  C25 UNL     1       0.421  33.325  12.166  0.00 -0.33    -0.051 A 
ATOM     52  H18 UNL     1      -0.319  35.957  14.186  0.00 -0.06     0.085 H 
ATOM     53  H19 UNL     1       0.371  36.054  10.108  0.00 -0.12     0.084 H 
ATOM     54  H20 UNL     1       0.808  33.577  10.068  0.00 -0.18     0.064 H 
ATOM     55  H21 UNL     1       0.597  32.255  12.128  0.00 -0.14     0.063 H 
ENDBRANCH 25 29
ENDBRANCH 20 23
ENDBRANCH 17 18
ENDBRANCH 13 17
BRANCH 9 2
ATOM      1  O1  UNL     1       0.465  22.928  18.275  0.00 -0.03    -0.207 OA
ATOM      2  S1  UNL     1       1.214  23.309  19.408  0.00 -0.31     0.240 S 
ATOM      3  O2  UNL     1       0.590  22.849  20.607  0.00 -0.03    -0.207 OA
BRANCH 2 4
ATOM      4  N1  UNL     1       2.686  22.758  19.159  0.00 -0.28    -0.211 N 
ATOM     35  H1  UNL     1       3.333  23.438  18.733  0.00 -0.07     0.141 HD
BRANCH 4 5
ATOM      5  C1  UNL     1       2.813  21.365  18.729  0.00 -0.14     0.014 C 
ATOM     36  H2  UNL     1       2.349  20.690  19.455  0.00 -0.01     0.044 H 
ATOM     37  H3  UNL     1       2.284  21.251  17.776  0.00 -0.05     0.044 H 
BRANCH 5 6
ATOM      6  C2  UNL     1       4.263  20.944  18.491  0.00 -0.23    -0.028 C 
ATOM      7  C3  UNL     1       4.454  19.455  18.204  0.00 -0.13    -0.049 C 
ATOM      8  C4  UNL     1       4.902  20.044  19.535  0.00 -0.17    -0.049 C 
ATOM     38  H4  UNL     1       4.856  21.659  17.939  0.00 -0.06     0.032 H 
ATOM     39  H5  UNL     1       3.581  18.813  18.194  0.00 -0.03     0.027 H 
ATOM     40  H6  UNL     1       5.225  19.165  17.505  0.00 -0.02     0.027 H 
ATOM     41  H7  UNL     1       4.335  19.827  20.433  0.00 -0.02     0.027 H 
ATOM     42  H8  UNL     1       5.966  20.160  19.712  0.00 -0.05     0.027 H 
ENDBRANCH 5 6
ENDBRANCH 4 5
ENDBRANCH 2 4
ENDBRANCH 9 2
BRANCH 14 15
ATOM     15  O3  UNL     1       1.037  29.131  19.920  0.00 -0.13    -0.495 OA
ATOM     16  C11 UNL     1       0.340  29.844  20.955  0.00 -0.20     0.078 C 
ATOM     56  H22 UNL     1       0.511  30.901  20.786  0.00 -0.05     0.067 H 
ATOM     57  H23 UNL     1       0.744  29.573  21.935  0.00 -0.09     0.067 H 
ATOM     58  H24 UNL     1      -0.726  29.632  20.901  0.00 -0.02     0.067 H 
ENDBRANCH 14 15
TORSDOF 9
ENDMDL
MODEL 4
REMARK WATVina v2023.12.13
REMARK WATVINA RESULT:      -8.2
REMARK SCOREN: vdw     :hbond   :elec    :desol   :clash   :torsion  
REMARK SCOREV: -43.15  :-1.82   :-2.70   :0.00    :0.28    :0.38    
REMARK  Name = AAX
REMARK  9 active torsions:
REMARK  status: ('A' for Active; 'I' for Inactive)
REMARK    1  A    between atoms: _2  and  _4
REMARK    2  A    between atoms: _2  and  _9
REMARK    3  A    between atoms: _4  and  _5
REMARK    4  A    between atoms: _5  and  _6
REMARK    5  A    between atoms: _13  and  _17
REMARK    6  A    between atoms: _14  and  _15
REMARK    7  A    between atoms: _17  and  _18
REMARK    8  A    between atoms: _20  and  _23
REMARK    9  A    between atoms: _25  and  _29
ROOT
ATOM      9  C5  UNL     1      -0.038  28.173  20.616  0.00 -0.16     0.084 A 
ATOM     10  C6  UNL     1      -0.142  26.819  20.913  0.00 -0.12    -0.038 A 
ATOM     11  C7  UNL     1       0.803  25.910  20.436  0.00 -0.15    -0.016 A 
ATOM     12  C8  UNL     1       1.047  28.579  19.803  0.00 -0.21    -0.015 A 
ATOM     13  C9  UNL     1       1.998  27.672  19.282  0.00 -0.23     0.086 A 
ATOM     14  C10 UNL     1       1.862  26.332  19.608  0.00 -0.23     0.142 A 
ATOM     43  H9  UNL     1      -0.943  26.446  21.547  0.00 -0.02     0.064 H 
ATOM     44  H10 UNL     1       0.691  24.862  20.700  0.00 -0.02     0.066 H 
ATOM     45  H11 UNL     1       1.155  29.644  19.597  0.00 -0.05     0.066 H 
ENDROOT
BRANCH 13 17
ATOM     17  N2  UNL     1       3.019  28.030  18.396  0.00 -0.32    -0.306 N 
ATOM     46  H12 UNL     1       3.867  27.469  18.472  0.00 -0.55     0.171 HD
BRANCH 17 18
ATOM     18  C12 UNL     1       2.893  28.948  17.403  0.00 -0.34     0.299 A 
ATOM     19  O4  UNL     1       1.884  29.838  17.399  0.00 -0.17    -0.423 O 
ATOM     20  C13 UNL     1       2.162  30.657  16.354  0.00 -0.27     0.156 A 
ATOM     21  C14 UNL     1       3.299  30.187  15.697  0.00 -0.41     0.076 A 
ATOM     22  N3  UNL     1       3.784  29.109  16.376  0.00 -0.73    -0.201 NA
ATOM     47  H13 UNL     1       3.780  30.589  14.817  0.00 -0.11     0.088 H 
BRANCH 20 23
ATOM     23  C15 UNL     1       1.201  31.711  16.040  0.00 -0.26     0.020 A 
ATOM     24  C16 UNL     1       1.178  32.305  14.779  0.00 -0.29    -0.043 A 
ATOM     25  C17 UNL     1       0.216  33.271  14.482  0.00 -0.27    -0.016 A 
ATOM     26  C18 UNL     1      -0.774  33.598  15.432  0.00 -0.19    -0.054 A 
ATOM     27  C19 UNL     1      -0.779  32.932  16.654  0.00 -0.19    -0.061 A 
ATOM     28  C20 UNL     1       0.187  31.996  16.962  0.00 -0.20    -0.051 A 
ATOM     48  H14 UNL     1       1.952  32.064  14.057  0.00 -0.06     0.064 H 
ATOM     49  H15 UNL     1      -1.534  34.331  15.207  0.00 -0.07     0.063 H 
ATOM     50  H16 UNL     1      -1.534  33.173  17.398  0.00 -0.03     0.062 H 
ATOM     51  H17 UNL     1       0.178  31.521  17.940  0.00 -0.03     0.063 H 
BRANCH 25 29
ATOM     29  C21 UNL     1       0.245  33.934  13.141  0.00 -0.39     0.000 A 
ATOM     30  C22 UNL     1       0.071  35.322  13.009  0.00 -0.41     0.035 A 
ATOM     31  N4  UNL     1       0.128  35.936  11.807  0.00 -0.82    -0.264 NA
ATOM     32  C23 UNL     1       0.339  35.224  10.694  0.00 -0.51     0.027 A 
ATOM     33  C24 UNL     1       0.531  33.841  10.764  0.00 -0.31    -0.043 A 
ATOM     34  C25 UNL     1       0.465  33.178  11.993  0.00 -0.27    -0.051 A 
ATOM     52  H18 UNL     1      -0.105  35.960  13.861  0.00 -0.08     0.085 H 
ATOM     53  H19 UNL     1       0.407  35.765   9.761  0.00 -0.10     0.084 H 
ATOM     54  H20 UNL     1       0.767  33.278   9.869  0.00 -0.13     0.064 H 
ATOM     55  H21 UNL     1       0.607  32.102  12.020  0.00 -0.13     0.063 H 
ENDBRANCH 25 29
ENDBRANCH 20 23
ENDBRANCH 17 18
ENDBRANCH 13 17
BRANCH 9 2
ATOM      1  O1  UNL     1      -0.663  30.525  21.195  0.00 -0.08    -0.207 OA
ATOM      2  S1  UNL     1      -1.152  29.203  21.257  0.00 -0.25     0.240 S 
ATOM      3  O2  UNL     1      -1.288  28.777  22.613  0.00 -0.16    -0.207 OA
BRANCH 2 4
ATOM      4  N1  UNL     1      -2.499  29.200  20.410  0.00 -0.11    -0.211 N 
ATOM     35  H1  UNL     1      -2.764  30.117  20.021  0.00 -0.01     0.141 HD
BRANCH 4 5
ATOM      5  C1  UNL     1      -3.587  28.347  20.890  0.00 -0.08     0.014 C 
ATOM     36  H2  UNL     1      -4.036  27.788  20.063  0.00 -0.09     0.044 H 
ATOM     37  H3  UNL     1      -3.168  27.622  21.597  0.00 -0.01     0.044 H 
BRANCH 5 6
ATOM      6  C2  UNL     1      -4.672  29.124  21.634  0.00 -0.06    -0.028 C 
ATOM      7  C3  UNL     1      -6.001  28.384  21.775  0.00 -0.05    -0.049 C 
ATOM      8  C4  UNL     1      -5.881  29.569  20.827  0.00 -0.11    -0.049 C 
ATOM     38  H4  UNL     1      -4.315  29.714  22.465  0.00 -0.01     0.032 H 
ATOM     39  H5  UNL     1      -6.090  27.391  21.349  0.00 -0.02     0.027 H 
ATOM     40  H6  UNL     1      -6.572  28.530  22.681  0.00 -0.00     0.027 H 
ATOM     41  H7  UNL     1      -5.867  29.397  19.757  0.00 -0.04     0.027 H 
ATOM     42  H8  UNL     1      -6.355  30.503  21.110  0.00 -0.02     0.027 H 
ENDBRANCH 5 6
ENDBRANCH 4 5
ENDBRANCH 2 4
ENDBRANCH 9 2
BRANCH 14 15
ATOM     15  O3  UNL     1       2.787  25.461  19.097  0.00 -0.16    -0.495 OA
ATOM     16  C11 UNL     1       2.560  24.057  18.893  0.00 -0.24     0.078 C 
ATOM     56  H22 UNL     1       3.468  23.644  18.468  0.00 -0.03     0.067 H 
ATOM     57  H23 UNL     1       1.739  23.908  18.185  0.00 -0.07     0.067 H 
ATOM     58  H24 UNL     1       2.348  23.571  19.843  0.00 -0.03     0.067 H 
ENDBRANCH 14 15
TORSDOF 9
ENDMDL
MODEL 5
REMARK WATVina v2023.12.13
REMARK WATVINA RESULT:      -7.8
REMARK SCOREN: vdw     :hbond   :elec    :desol   :clash   :torsion  
REMARK SCOREV: -43.68  :-1.66   :-2.68   :0.00    :0.37    :0.73    
REMARK  Name = AAX
REMARK  9 active torsions:
REMARK  status: ('A' for Active; 'I' for Inactive)
REMARK    1  A    between atoms: _2  and  _4
REMARK    2  A    between atoms: _2  and  _9
REMARK    3  A    between atoms: _4  and  _5
REMARK    4  A    between atoms: _5  and  _6
REMARK    5  A    between atoms: _13  and  _17
REMARK    6  A    between atoms: _14  and  _15
REMARK    7  A    between atoms: _17  and  _18
REMARK    8  A    between atoms: _20  and  _23
REMARK    9  A    between atoms: _25  and  _29
ROOT
ATOM      9  C5  UNL     1       1.335  25.316  19.619  0.00 -0.20     0.084 A 
ATOM     10  C6  UNL     1       0.312  25.932  20.330  0.00 -0.13    -0.038 A 
ATOM     11  C7  UNL     1       0.237  27.323  20.412  0.00 -0.15    -0.016 A 
ATOM     12  C8  UNL     1       2.296  26.155  19.003  0.00 -0.27    -0.015 A 
ATOM     13  C9  UNL     1       2.258  27.565  19.099  0.00 -0.27     0.086 A 
ATOM     14  C10 UNL     1       1.216  28.138  19.812  0.00 -0.18     0.142 A 
ATOM     43  H9  UNL     1      -0.466  25.343  20.811  0.00 -0.02     0.064 H 
ATOM     44  H10 UNL     1      -0.585  27.764  20.969  0.00 -0.02     0.066 H 
ATOM     45  H11 UNL     1       3.079  25.680  18.414  0.00 -0.10     0.066 H 
ENDROOT
BRANCH 13 17
ATOM     17  N2  UNL     1       3.246  28.412  18.588  0.00 -0.29    -0.306 N 
ATOM     46  H12 UNL     1       4.172  28.280  18.993  0.00 -0.54     0.171 HD
BRANCH 17 18
ATOM     18  C12 UNL     1       3.070  29.261  17.543  0.00 -0.14     0.299 A 
ATOM     19  O4  UNL     1       2.033  30.118  17.505  0.00 -0.14    -0.423 O 
ATOM     20  C13 UNL     1       2.264  30.877  16.405  0.00 -0.24     0.156 A 
ATOM     21  C14 UNL     1       3.401  30.401  15.753  0.00 -0.44     0.076 A 
ATOM     22  N3  UNL     1       3.933  29.382  16.488  0.00 -0.70    -0.201 NA
ATOM     47  H13 UNL     1       3.850  30.760  14.838  0.00 -0.13     0.088 H 
BRANCH 20 23
ATOM     23  C15 UNL     1       1.263  31.879  16.047  0.00 -0.26     0.020 A 
ATOM     24  C16 UNL     1       1.230  32.430  14.767  0.00 -0.30    -0.043 A 
ATOM     25  C17 UNL     1       0.232  33.345  14.429  0.00 -0.28    -0.016 A 
ATOM     26  C18 UNL     1      -0.780  33.662  15.359  0.00 -0.20    -0.054 A 
ATOM     27  C19 UNL     1      -0.771  33.037  16.602  0.00 -0.19    -0.061 A 
ATOM     28  C20 UNL     1       0.229  32.152  16.949  0.00 -0.20    -0.051 A 
ATOM     48  H14 UNL     1       2.020  32.197  14.060  0.00 -0.07     0.064 H 
ATOM     49  H15 UNL     1      -1.567  34.355  15.103  0.00 -0.07     0.063 H 
ATOM     50  H16 UNL     1      -1.543  33.271  17.330  0.00 -0.03     0.062 H 
ATOM     51  H17 UNL     1       0.229  31.710  17.943  0.00 -0.03     0.063 H 
BRANCH 25 29
ATOM     29  C21 UNL     1       0.248  33.964  13.067  0.00 -0.39     0.000 A 
ATOM     30  C22 UNL     1       0.076  35.347  12.892  0.00 -0.42     0.035 A 
ATOM     31  N4  UNL     1       0.121  35.922  11.670  0.00 -0.82    -0.264 NA
ATOM     32  C23 UNL     1       0.318  35.174  10.578  0.00 -0.48     0.027 A 
ATOM     33  C24 UNL     1       0.507  33.793  10.691  0.00 -0.30    -0.043 A 
ATOM     34  C25 UNL     1       0.453  33.170  11.941  0.00 -0.28    -0.051 A 
ATOM     52  H18 UNL     1      -0.090  36.013  13.725  0.00 -0.09     0.085 H 
ATOM     53  H19 UNL     1       0.376  35.685   9.627  0.00 -0.08     0.084 H 
ATOM     54  H20 UNL     1       0.731  33.201   9.812  0.00 -0.10     0.064 H 
ATOM     55  H21 UNL     1       0.592  32.096  12.002  0.00 -0.13     0.063 H 
ENDBRANCH 25 29
ENDBRANCH 20 23
ENDBRANCH 17 18
ENDBRANCH 13 17
BRANCH 9 2
ATOM      1  O1  UNL     1       2.582  23.233  19.017  0.00 -0.08    -0.207 OA
ATOM      2  S1  UNL     1       1.336  23.673  19.512  0.00 -0.35     0.240 S 
ATOM      3  O2  UNL     1       0.291  23.379  18.585  0.00 -0.05    -0.207 OA
BRANCH 2 4
ATOM      4  N1  UNL     1       1.177  22.998  20.944  0.00 -0.08    -0.211 N 
ATOM     35  H1  UNL     1       0.205  22.785  21.213  0.00 -0.01     0.141 HD
BRANCH 4 5
ATOM      5  C1  UNL     1       2.068  23.467  22.006  0.00 -0.14     0.014 C 
ATOM     36  H2  UNL     1       3.049  22.987  21.929  0.00 -0.04     0.044 H 
ATOM     37  H3  UNL     1       2.211  24.546  21.882  0.00 -0.05     0.044 H 
BRANCH 5 6
ATOM      6  C2  UNL     1       1.497  23.247  23.406  0.00 -0.08    -0.028 C 
ATOM      7  C3  UNL     1       0.694  24.423  23.957  0.00 -0.11    -0.049 C 
ATOM      8  C4  UNL     1       2.068  24.099  24.528  0.00 -0.17    -0.049 C 
ATOM     38  H4  UNL     1       1.146  22.243  23.598  0.00 -0.01     0.032 H 
ATOM     39  H5  UNL     1       0.588  25.311  23.345  0.00 -0.03     0.027 H 
ATOM     40  H6  UNL     1      -0.164  24.209  24.578  0.00 -0.01     0.027 H 
ATOM     41  H7  UNL     1       2.908  24.744  24.297  0.00 -0.02     0.027 H 
ATOM     42  H8  UNL     1       2.121  23.654  25.516  0.00 -0.03     0.027 H 
ENDBRANCH 5 6
ENDBRANCH 4 5
ENDBRANCH 2 4
ENDBRANCH 9 2
BRANCH 14 15
ATOM     15  O3  UNL     1       1.188  29.505  19.900  0.00 -0.15    -0.495 OA
ATOM     16  C11 UNL     1       0.112  30.264  20.474  0.00 -0.16     0.078 C 
ATOM     56  H22 UNL     1       0.388  31.310  20.410  0.00 -0.04     0.067 H 
ATOM     57  H23 UNL     1      -0.016  29.997  21.527  0.00 -0.04     0.067 H 
ATOM     58  H24 UNL     1      -0.806  30.092  19.914  0.00 -0.02     0.067 H 
ENDBRANCH 14 15
TORSDOF 9
ENDMDL
MODEL 6
REMARK WATVina v2023.12.13
REMARK WATVINA RESULT:      -7.2
REMARK SCOREN: vdw     :hbond   :elec    :desol   :clash   :torsion  
REMARK SCOREV: -37.26  :-1.25   :-2.79   :0.00    :0.13    :0.20    
REMARK  Name = AAX
REMARK  9 active torsions:
REMARK  status: ('A' for Active; 'I' for Inactive)
REMARK    1  A    between atoms: _2  and  _4
REMARK    2  A    between atoms: _2  and  _9
REMARK    3  A    between atoms: _4  and  _5
REMARK    4  A    between atoms: _5  and  _6
REMARK    5  A    between atoms: _13  and  _17
REMARK    6  A    between atoms: _14  and  _15
REMARK    7  A    between atoms: _17  and  _18
REMARK    8  A    between atoms: _20  and  _23
REMARK    9  A    between atoms: _25  and  _29
ROOT
ATOM      9  C5  UNL     1      -3.799  29.032  20.710  0.00 -0.09     0.084 A 
ATOM     10  C6  UNL     1      -5.025  28.573  21.177  0.00 -0.06    -0.038 A 
ATOM     11  C7  UNL     1      -6.209  29.225  20.830  0.00 -0.09    -0.016 A 
ATOM     12  C8  UNL     1      -3.805  30.186  19.890  0.00 -0.12    -0.015 A 
ATOM     13  C9  UNL     1      -4.990  30.881  19.551  0.00 -0.20     0.086 A 
ATOM     14  C10 UNL     1      -6.191  30.385  20.033  0.00 -0.14     0.142 A 
ATOM     43  H9  UNL     1      -5.088  27.681  21.797  0.00 -0.01     0.064 H 
ATOM     44  H10 UNL     1      -7.147  28.827  21.208  0.00 -0.02     0.066 H 
ATOM     45  H11 UNL     1      -2.852  30.529  19.490  0.00 -0.02     0.066 H 
ENDROOT
BRANCH 13 17
ATOM     17  N2  UNL     1      -5.017  32.078  18.829  0.00 -0.23    -0.306 N 
ATOM     46  H12 UNL     1      -5.949  32.453  18.659  0.00 -0.41     0.171 HD
BRANCH 17 18
ATOM     18  C12 UNL     1      -3.917  32.793  18.480  0.00 -0.19     0.299 A 
ATOM     19  O4  UNL     1      -3.007  32.301  17.619  0.00 -0.14    -0.423 O 
ATOM     20  C13 UNL     1      -2.148  33.330  17.413  0.00 -0.17     0.156 A 
ATOM     21  C14 UNL     1      -2.516  34.401  18.226  0.00 -0.14     0.076 A 
ATOM     22  N3  UNL     1      -3.659  34.073  18.893  0.00  0.02    -0.201 NA
ATOM     47  H13 UNL     1      -2.036  35.364  18.326  0.00 -0.02     0.088 H 
BRANCH 20 23
ATOM     23  C15 UNL     1      -0.988  33.088  16.559  0.00 -0.19     0.020 A 
ATOM     24  C16 UNL     1      -0.911  33.645  15.283  0.00 -0.14    -0.043 A 
ATOM     25  C17 UNL     1       0.230  33.446  14.505  0.00 -0.29    -0.016 A 
ATOM     26  C18 UNL     1       1.331  32.739  15.032  0.00 -0.30    -0.054 A 
ATOM     27  C19 UNL     1       1.261  32.261  16.337  0.00 -0.24    -0.061 A 
ATOM     28  C20 UNL     1       0.124  32.433  17.100  0.00 -0.19    -0.051 A 
ATOM     48  H14 UNL     1      -1.767  34.174  14.875  0.00 -0.02     0.064 H 
ATOM     49  H15 UNL     1       2.225  32.594  14.445  0.00 -0.09     0.063 H 
ATOM     50  H16 UNL     1       2.100  31.713  16.757  0.00 -0.05     0.062 H 
ATOM     51  H17 UNL     1       0.087  32.014  18.104  0.00 -0.03     0.063 H 
BRANCH 25 29
ATOM     29  C21 UNL     1       0.268  34.009  13.119  0.00 -0.39     0.000 A 
ATOM     30  C22 UNL     1       0.124  35.388  12.888  0.00 -0.41     0.035 A 
ATOM     31  N4  UNL     1       0.189  35.913  11.644  0.00 -0.82    -0.264 NA
ATOM     32  C23 UNL     1       0.378  35.118  10.585  0.00 -0.51     0.027 A 
ATOM     33  C24 UNL     1       0.539  33.739  10.754  0.00 -0.29    -0.043 A 
ATOM     34  C25 UNL     1       0.464  33.168  12.027  0.00 -0.28    -0.051 A 
ATOM     52  H18 UNL     1      -0.033  36.090  13.693  0.00 -0.08     0.085 H 
ATOM     53  H19 UNL     1       0.453  35.589   9.615  0.00 -0.08     0.084 H 
ATOM     54  H20 UNL     1       0.757  33.108   9.901  0.00 -0.15     0.064 H 
ATOM     55  H21 UNL     1       0.581  32.094  12.132  0.00 -0.12     0.063 H 
ENDBRANCH 25 29
ENDBRANCH 20 23
ENDBRANCH 17 18
ENDBRANCH 13 17
BRANCH 9 2
ATOM      1  O1  UNL     1      -2.378  27.007  20.335  0.00 -0.05    -0.207 OA
ATOM      2  S1  UNL     1      -2.442  28.186  21.107  0.00 -0.21     0.240 S 
ATOM      3  O2  UNL     1      -2.613  27.877  22.491  0.00 -0.03    -0.207 OA
BRANCH 2 4
ATOM      4  N1  UNL     1      -1.125  29.006  20.756  0.00 -0.11    -0.211 N 
ATOM     35  H1  UNL     1      -0.406  28.467  20.251  0.00 -0.02     0.141 HD
BRANCH 4 5
ATOM      5  C1  UNL     1      -0.652  29.968  21.752  0.00 -0.16     0.014 C 
ATOM     36  H2  UNL     1      -1.400  30.113  22.538  0.00 -0.03     0.044 H 
ATOM     37  H3  UNL     1       0.252  29.562  22.219  0.00 -0.07     0.044 H 
BRANCH 5 6
ATOM      6  C2  UNL     1      -0.275  31.319  21.146  0.00 -0.21    -0.028 C 
ATOM      7  C3  UNL     1      -0.271  32.482  22.137  0.00 -0.23    -0.049 C 
ATOM      8  C4  UNL     1      -1.365  32.377  21.083  0.00 -0.12    -0.049 C 
ATOM     38  H4  UNL     1       0.497  31.277  20.392  0.00 -0.05     0.032 H 
ATOM     39  H5  UNL     1      -0.532  32.284  23.170  0.00 -0.08     0.027 H 
ATOM     40  H6  UNL     1       0.469  33.259  22.008  0.00 -0.08     0.027 H 
ATOM     41  H7  UNL     1      -2.367  32.091  21.381  0.00 -0.01     0.027 H 
ATOM     42  H8  UNL     1      -1.342  33.070  20.249  0.00 -0.02     0.027 H 
ENDBRANCH 5 6
ENDBRANCH 4 5
ENDBRANCH 2 4
ENDBRANCH 9 2
BRANCH 14 15
ATOM     15  O3  UNL     1      -7.333  31.066  19.700  0.00 -0.39    -0.495 OA
ATOM     16  C11 UNL     1      -8.656  30.689  20.113  0.00 -0.15     0.078 C 
ATOM     56  H22 UNL     1      -9.340  31.425  19.705  0.00 -0.04     0.067 H 
ATOM     57  H23 UNL     1      -8.729  30.706  21.204  0.00 -0.01     0.067 H 
ATOM     58  H24 UNL     1      -8.903  29.704  19.721  0.00 -0.05     0.067 H 
ENDBRANCH 14 15
TORSDOF 9
ENDMDL
MODEL 7
REMARK WATVina v2023.12.13
REMARK WATVINA RESULT:      -7.2
REMARK SCOREN: vdw     :hbond   :elec    :desol   :clash   :torsion  
REMARK SCOREV: -43.28  :-1.27   :-2.91   :0.00    :0.58    :0.93    
REMARK  Name = AAX
REMARK  9 active torsions:
REMARK  status: ('A' for Active; 'I' for Inactive)
REMARK    1  A    between atoms: _2  and  _4
REMARK    2  A    between atoms: _2  and  _9
REMARK    3  A    between atoms: _4  and  _5
REMARK    4  A    between atoms: _5  and  _6
REMARK    5  A    between atoms: _13  and  _17
REMARK    6  A    between atoms: _14  and  _15
REMARK    7  A    between atoms: _17  and  _18
REMARK    8  A    between atoms: _20  and  _23
REMARK    9  A    between atoms: _25  and  _29
ROOT
ATOM      9  C5  UNL     1      -0.871  28.258  19.956  0.00 -0.17     0.084 A 
ATOM     10  C6  UNL     1      -0.779  27.120  20.748  0.00 -0.11    -0.038 A 
ATOM     11  C7  UNL     1       0.358  26.312  20.708  0.00 -0.14    -0.016 A 
ATOM     12  C8  UNL     1       0.222  28.547  19.103  0.00 -0.15    -0.015 A 
ATOM     13  C9  UNL     1       1.371  27.726  19.022  0.00 -0.13     0.086 A 
ATOM     14  C10 UNL     1       1.424  26.605  19.835  0.00 -0.19     0.142 A 
ATOM     43  H9  UNL     1      -1.578  26.853  21.437  0.00 -0.01     0.064 H 
ATOM     44  H10 UNL     1       0.394  25.438  21.351  0.00 -0.02     0.066 H 
ATOM     45  H11 UNL     1       0.173  29.457  18.507  0.00 -0.04     0.066 H 
ENDROOT
BRANCH 13 17
ATOM     17  N2  UNL     1       2.418  27.931  18.119  0.00 -0.39    -0.306 N 
ATOM     46  H12 UNL     1       3.059  27.144  18.022  0.00 -0.18     0.171 HD
BRANCH 17 18
ATOM     18  C12 UNL     1       2.539  29.014  17.310  0.00 -0.32     0.299 A 
ATOM     19  O4  UNL     1       1.579  29.956  17.255  0.00 -0.16    -0.423 O 
ATOM     20  C13 UNL     1       2.103  30.925  16.464  0.00 -0.23     0.156 A 
ATOM     21  C14 UNL     1       3.345  30.505  15.990  0.00 -0.43     0.076 A 
ATOM     22  N3  UNL     1       3.639  29.294  16.545  0.00 -0.66    -0.201 NA
ATOM     47  H13 UNL     1       4.019  31.022  15.323  0.00 -0.13     0.088 H 
BRANCH 20 23
ATOM     23  C15 UNL     1       1.262  32.078  16.152  0.00 -0.25     0.020 A 
ATOM     24  C16 UNL     1       1.175  32.568  14.849  0.00 -0.30    -0.043 A 
ATOM     25  C17 UNL     1       0.323  33.636  14.563  0.00 -0.28    -0.016 A 
ATOM     26  C18 UNL     1      -0.498  34.175  15.575  0.00 -0.20    -0.054 A 
ATOM     27  C19 UNL     1      -0.452  33.616  16.849  0.00 -0.19    -0.061 A 
ATOM     28  C20 UNL     1       0.408  32.578  17.142  0.00 -0.20    -0.051 A 
ATOM     48  H14 UNL     1       1.821  32.161  14.078  0.00 -0.08     0.064 H 
ATOM     49  H15 UNL     1      -1.173  34.990  15.361  0.00 -0.06     0.063 H 
ATOM     50  H16 UNL     1      -1.078  34.022  17.639  0.00 -0.03     0.062 H 
ATOM     51  H17 UNL     1       0.448  32.188  18.157  0.00 -0.04     0.063 H 
BRANCH 25 29
ATOM     29  C21 UNL     1       0.287  34.179  13.170  0.00 -0.38     0.000 A 
ATOM     30  C22 UNL     1       0.014  35.534  12.922  0.00 -0.36     0.035 A 
ATOM     31  N4  UNL     1       0.010  36.044  11.670  0.00 -0.73    -0.264 NA
ATOM     32  C23 UNL     1       0.255  35.253  10.619  0.00 -0.46     0.027 A 
ATOM     33  C24 UNL     1       0.544  33.898  10.804  0.00 -0.32    -0.043 A 
ATOM     34  C25 UNL     1       0.542  33.342  12.087  0.00 -0.20    -0.051 A 
ATOM     52  H18 UNL     1      -0.195  36.231  13.720  0.00 -0.09     0.085 H 
ATOM     53  H19 UNL     1       0.271  35.715   9.641  0.00 -0.09     0.084 H 
ATOM     54  H20 UNL     1       0.806  33.277   9.956  0.00 -0.17     0.064 H 
ATOM     55  H21 UNL     1       0.760  32.285  12.204  0.00 -0.12     0.063 H 
ENDBRANCH 25 29
ENDBRANCH 20 23
ENDBRANCH 17 18
ENDBRANCH 13 17
BRANCH 9 2
ATOM      1  O1  UNL     1      -3.279  28.435  20.609  0.00 -0.03    -0.207 OA
ATOM      2  S1  UNL     1      -2.214  29.201  20.091  0.00 -0.29     0.240 S 
ATOM      3  O2  UNL     1      -2.491  29.614  18.753  0.00 -0.07    -0.207 OA
BRANCH 2 4
ATOM      4  N1  UNL     1      -1.988  30.386  21.130  0.00 -0.08    -0.211 N 
ATOM     35  H1  UNL     1      -2.845  30.715  21.598  0.00 -0.01     0.141 HD
BRANCH 4 5
ATOM      5  C1  UNL     1      -0.994  31.401  20.778  0.00 -0.11     0.014 C 
ATOM     36  H2  UNL     1      -0.134  31.353  21.454  0.00 -0.04     0.044 H 
ATOM     37  H3  UNL     1      -0.637  31.194  19.763  0.00 -0.02     0.044 H 
BRANCH 5 6
ATOM      6  C2  UNL     1      -1.565  32.819  20.773  0.00 -0.10    -0.028 C 
ATOM      7  C3  UNL     1      -0.516  33.926  20.683  0.00 -0.23    -0.049 C 
ATOM      8  C4  UNL     1      -1.270  33.687  21.985  0.00 -0.19    -0.049 C 
ATOM     38  H4  UNL     1      -2.488  32.932  20.224  0.00 -0.01     0.032 H 
ATOM     39  H5  UNL     1       0.530  33.647  20.636  0.00 -0.06     0.027 H 
ATOM     40  H6  UNL     1      -0.763  34.817  20.124  0.00 -0.04     0.027 H 
ATOM     41  H7  UNL     1      -0.756  33.231  22.823  0.00 -0.05     0.027 H 
ATOM     42  H8  UNL     1      -2.025  34.408  22.280  0.00 -0.03     0.027 H 
ENDBRANCH 5 6
ENDBRANCH 4 5
ENDBRANCH 2 4
ENDBRANCH 9 2
BRANCH 14 15
ATOM     15  O3  UNL     1       2.540  25.815  19.748  0.00 -0.13    -0.495 OA
ATOM     16  C11 UNL     1       2.524  24.410  19.450  0.00 -0.26     0.078 C 
ATOM     56  H22 UNL     1       3.555  24.073  19.439  0.00 -0.12     0.067 H 
ATOM     57  H23 UNL     1       2.087  24.241  18.462  0.00 -0.06     0.067 H 
ATOM     58  H24 UNL     1       1.971  23.871  20.217  0.00 -0.03     0.067 H 
ENDBRANCH 14 15
TORSDOF 9
ENDMDL
MODEL 8
REMARK WATVina v2023.12.13
REMARK WATVINA RESULT:      -7.0
REMARK SCOREN: vdw     :hbond   :elec    :desol   :clash   :torsion  
REMARK SCOREV: -36.28  :-1.00   :-3.52   :0.00    :0.14    :0.28    
REMARK  Name = AAX
REMARK  9 active torsions:
REMARK  status: ('A' for Active; 'I' for Inactive)
REMARK    1  A    between atoms: _2  and  _4
REMARK    2  A    between atoms: _2  and  _9
REMARK    3  A    between atoms: _4  and  _5
REMARK    4  A    between atoms: _5  and  _6
REMARK    5  A    between atoms: _13  and  _17
REMARK    6  A    between atoms: _14  and  _15
REMARK    7  A    between atoms: _17  and  _18
REMARK    8  A    between atoms: _20  and  _23
REMARK    9  A    between atoms: _25  and  _29
ROOT
ATOM      9  C5  UNL     1      -3.301  30.293  21.952  0.00 -0.05     0.084 A 
ATOM     10  C6  UNL     1      -4.430  29.538  22.246  0.00 -0.03    -0.038 A 
ATOM     11  C7  UNL     1      -5.625  29.741  21.555  0.00 -0.05    -0.016 A 
ATOM     12  C8  UNL     1      -3.423  31.278  20.942  0.00 -0.05    -0.015 A 
ATOM     13  C9  UNL     1      -4.631  31.523  20.250  0.00 -0.10     0.086 A 
ATOM     14  C10 UNL     1      -5.731  30.743  20.571  0.00 -0.12     0.142 A 
ATOM     43  H9  UNL     1      -4.396  28.754  23.000  0.00 -0.00     0.064 H 
ATOM     44  H10 UNL     1      -6.481  29.122  21.810  0.00 -0.01     0.066 H 
ATOM     45  H11 UNL     1      -2.532  31.847  20.680  0.00 -0.01     0.066 H 
ENDROOT
BRANCH 13 17
ATOM     17  N2  UNL     1      -4.808  32.554  19.322  0.00 -0.19    -0.306 N 
ATOM     46  H12 UNL     1      -5.776  32.838  19.178  0.00 -0.31     0.171 HD
BRANCH 17 18
ATOM     18  C12 UNL     1      -3.797  33.247  18.738  0.00 -0.16     0.299 A 
ATOM     19  O4  UNL     1      -2.892  32.636  17.952  0.00 -0.11    -0.423 O 
ATOM     20  C13 UNL     1      -2.142  33.648  17.452  0.00 -0.17     0.156 A 
ATOM     21  C14 UNL     1      -2.564  34.850  18.017  0.00 -0.15     0.076 A 
ATOM     22  N3  UNL     1      -3.636  34.604  18.822  0.00  0.02    -0.201 NA
ATOM     47  H13 UNL     1      -2.169  35.844  17.855  0.00 -0.03     0.088 H 
BRANCH 20 23
ATOM     23  C15 UNL     1      -1.011  33.298  16.596  0.00 -0.20     0.020 A 
ATOM     24  C16 UNL     1      -0.908  33.809  15.302  0.00 -0.19    -0.043 A 
ATOM     25  C17 UNL     1       0.208  33.506  14.522  0.00 -0.29    -0.016 A 
ATOM     26  C18 UNL     1       1.262  32.740  15.062  0.00 -0.30    -0.054 A 
ATOM     27  C19 UNL     1       1.172  32.309  16.382  0.00 -0.24    -0.061 A 
ATOM     28  C20 UNL     1       0.058  32.584  17.149  0.00 -0.19    -0.051 A 
ATOM     48  H14 UNL     1      -1.728  34.384  14.885  0.00 -0.07     0.064 H 
ATOM     49  H15 UNL     1       2.138  32.514  14.472  0.00 -0.08     0.063 H 
ATOM     50  H16 UNL     1       1.975  31.716  16.812  0.00 -0.05     0.062 H 
ATOM     51  H17 UNL     1       0.001  32.199  18.165  0.00 -0.03     0.063 H 
BRANCH 25 29
ATOM     29  C21 UNL     1       0.271  34.023  13.119  0.00 -0.39     0.000 A 
ATOM     30  C22 UNL     1       0.097  35.388  12.836  0.00 -0.41     0.035 A 
ATOM     31  N4  UNL     1       0.185  35.872  11.577  0.00 -0.82    -0.264 NA
ATOM     32  C23 UNL     1       0.426  35.046  10.552  0.00 -0.51     0.027 A 
ATOM     33  C24 UNL     1       0.619  33.680  10.773  0.00 -0.22    -0.043 A 
ATOM     34  C25 UNL     1       0.523  33.150  12.063  0.00 -0.21    -0.051 A 
ATOM     52  H18 UNL     1      -0.103  36.112  13.611  0.00 -0.09     0.085 H 
ATOM     53  H19 UNL     1       0.517  35.486   9.568  0.00 -0.08     0.084 H 
ATOM     54  H20 UNL     1       0.880  33.026   9.950  0.00 -0.17     0.064 H 
ATOM     55  H21 UNL     1       0.666  32.084  12.209  0.00 -0.11     0.063 H 
ENDBRANCH 25 29
ENDBRANCH 20 23
ENDBRANCH 17 18
ENDBRANCH 13 17
BRANCH 9 2
ATOM      1  O1  UNL     1      -2.208  29.342  23.992  0.00 -0.06    -0.207 OA
ATOM      2  S1  UNL     1      -1.905  29.965  22.763  0.00 -0.21     0.240 S 
ATOM      3  O2  UNL     1      -1.314  31.247  22.977  0.00 -0.11    -0.207 OA
BRANCH 2 4
ATOM      4  N1  UNL     1      -1.000  28.929  21.963  0.00 -0.14    -0.211 N 
ATOM     35  H1  UNL     1      -0.909  28.005  22.409  0.00 -0.02     0.141 HD
BRANCH 4 5
ATOM      5  C1  UNL     1       0.188  29.459  21.293  0.00 -0.21     0.014 C 
ATOM     36  H2  UNL     1       0.060  30.520  21.056  0.00 -0.04     0.044 H 
ATOM     37  H3  UNL     1       1.038  29.369  21.979  0.00 -0.10     0.044 H 
BRANCH 5 6
ATOM      6  C2  UNL     1       0.551  28.690  20.024  0.00 -0.25    -0.028 C 
ATOM      7  C3  UNL     1       1.574  29.387  19.128  0.00 -0.33    -0.049 C 
ATOM      8  C4  UNL     1       0.116  29.296  18.699  0.00 -0.28    -0.049 C 
ATOM     38  H4  UNL     1       0.614  27.619  20.147  0.00 -0.04     0.032 H 
ATOM     39  H5  UNL     1       1.960  30.352  19.435  0.00 -0.03     0.027 H 
ATOM     40  H6  UNL     1       2.287  28.774  18.595  0.00 -0.07     0.027 H 
ATOM     41  H7  UNL     1      -0.506  30.183  18.728  0.00 -0.03     0.027 H 
ATOM     42  H8  UNL     1      -0.141  28.612  17.897  0.00 -0.01     0.027 H 
ENDBRANCH 5 6
ENDBRANCH 4 5
ENDBRANCH 2 4
ENDBRANCH 9 2
BRANCH 14 15
ATOM     15  O3  UNL     1      -6.898  30.989  19.896  0.00 -0.26    -0.495 OA
ATOM     16  C11 UNL     1      -8.133  30.290  20.121  0.00 -0.12     0.078 C 
ATOM     56  H22 UNL     1      -8.869  30.717  19.449  0.00 -0.06     0.067 H 
ATOM     57  H23 UNL     1      -8.467  30.439  21.152  0.00 -0.01     0.067 H 
ATOM     58  H24 UNL     1      -8.008  29.231  19.901  0.00 -0.05     0.067 H 
ENDBRANCH 14 15
TORSDOF 9
ENDMDL
MODEL 9
REMARK WATVina v2023.12.13
REMARK WATVINA RESULT:      -7.0
REMARK SCOREN: vdw     :hbond   :elec    :desol   :clash   :torsion  
REMARK SCOREV: -37.26  :-1.16   :-3.34   :0.00    :0.11    :0.57    
REMARK  Name = AAX
REMARK  9 active torsions:
REMARK  status: ('A' for Active; 'I' for Inactive)
REMARK    1  A    between atoms: _2  and  _4
REMARK    2  A    between atoms: _2  and  _9
REMARK    3  A    between atoms: _4  and  _5
REMARK    4  A    between atoms: _5  and  _6
REMARK    5  A    between atoms: _13  and  _17
REMARK    6  A    between atoms: _14  and  _15
REMARK    7  A    between atoms: _17  and  _18
REMARK    8  A    between atoms: _20  and  _23
REMARK    9  A    between atoms: _25  and  _29
ROOT
ATOM      9  C5  UNL     1      -1.280  28.751  21.532  0.00 -0.10     0.084 A 
ATOM     10  C6  UNL     1      -2.272  27.779  21.500  0.00 -0.06    -0.038 A 
ATOM     11  C7  UNL     1      -3.558  28.087  21.055  0.00 -0.06    -0.016 A 
ATOM     12  C8  UNL     1      -1.634  30.057  21.113  0.00 -0.07    -0.015 A 
ATOM     13  C9  UNL     1      -2.938  30.400  20.689  0.00 -0.07     0.086 A 
ATOM     14  C10 UNL     1      -3.896  29.398  20.666  0.00 -0.10     0.142 A 
ATOM     43  H9  UNL     1      -2.058  26.753  21.792  0.00 -0.01     0.064 H 
ATOM     44  H10 UNL     1      -4.302  27.295  21.036  0.00 -0.03     0.066 H 
ATOM     45  H11 UNL     1      -0.851  30.814  21.101  0.00 -0.02     0.066 H 
ENDROOT
BRANCH 13 17
ATOM     17  N2  UNL     1      -3.341  31.699  20.368  0.00 -0.07    -0.306 N 
ATOM     46  H12 UNL     1      -4.015  32.110  21.014  0.00 -0.01     0.171 HD
BRANCH 17 18
ATOM     18  C12 UNL     1      -2.807  32.448  19.369  0.00 -0.08     0.299 A 
ATOM     19  O4  UNL     1      -1.828  31.967  18.581  0.00 -0.06    -0.423 O 
ATOM     20  C13 UNL     1      -1.654  32.924  17.637  0.00 -0.14     0.156 A 
ATOM     21  C14 UNL     1      -2.483  34.007  17.928  0.00 -0.16     0.076 A 
ATOM     22  N3  UNL     1      -3.239  33.700  19.021  0.00 -0.02    -0.201 NA
ATOM     47  H13 UNL     1      -2.578  34.943  17.395  0.00 -0.04     0.088 H 
BRANCH 20 23
ATOM     23  C15 UNL     1      -0.595  32.725  16.652  0.00 -0.18     0.020 A 
ATOM     24  C16 UNL     1      -0.624  33.388  15.426  0.00 -0.16    -0.043 A 
ATOM     25  C17 UNL     1       0.426  33.225  14.521  0.00 -0.29    -0.016 A 
ATOM     26  C18 UNL     1       1.547  32.445  14.873  0.00 -0.31    -0.054 A 
ATOM     27  C19 UNL     1       1.589  31.858  16.134  0.00 -0.26    -0.061 A 
ATOM     28  C20 UNL     1       0.541  31.995  17.021  0.00 -0.20    -0.051 A 
ATOM     48  H14 UNL     1      -1.496  33.974  15.152  0.00 -0.05     0.064 H 
ATOM     49  H15 UNL     1       2.373  32.326  14.187  0.00 -0.08     0.063 H 
ATOM     50  H16 UNL     1       2.445  31.252  16.419  0.00 -0.06     0.062 H 
ATOM     51  H17 UNL     1       0.588  31.492  17.984  0.00 -0.04     0.063 H 
BRANCH 25 29
ATOM     29  C21 UNL     1       0.346  33.905  13.190  0.00 -0.37     0.000 A 
ATOM     30  C22 UNL     1       0.103  35.285  13.090  0.00 -0.40     0.035 A 
ATOM     31  N4  UNL     1       0.062  35.917  11.896  0.00 -0.82    -0.264 NA
ATOM     32  C23 UNL     1       0.238  35.229  10.762  0.00 -0.45     0.027 A 
ATOM     33  C24 UNL     1       0.495  33.855  10.800  0.00 -0.32    -0.043 A 
ATOM     34  C25 UNL     1       0.531  33.174  12.020  0.00 -0.20    -0.051 A 
ATOM     52  H18 UNL     1      -0.051  35.904  13.961  0.00 -0.06     0.085 H 
ATOM     53  H19 UNL     1       0.226  35.785   9.835  0.00 -0.12     0.084 H 
ATOM     54  H20 UNL     1       0.702  33.315   9.884  0.00 -0.13     0.064 H 
ATOM     55  H21 UNL     1       0.721  32.106  12.023  0.00 -0.12     0.063 H 
ENDBRANCH 25 29
ENDBRANCH 20 23
ENDBRANCH 17 18
ENDBRANCH 13 17
BRANCH 9 2
ATOM      1  O1  UNL     1       0.303  28.320  23.421  0.00 -0.70    -0.207 OA
ATOM      2  S1  UNL     1       0.233  28.311  22.012  0.00 -0.48     0.240 S 
ATOM      3  O2  UNL     1       1.085  29.314  21.457  0.00 -0.19    -0.207 OA
BRANCH 2 4
ATOM      4  N1  UNL     1       0.571  26.820  21.571  0.00 -0.17    -0.211 N 
ATOM     35  H1  UNL     1       1.061  26.262  22.286  0.00 -0.04     0.141 HD
BRANCH 4 5
ATOM      5  C1  UNL     1       0.968  26.609  20.179  0.00 -0.18     0.014 C 
ATOM     36  H2  UNL     1       0.273  27.108  19.497  0.00 -0.03     0.044 H 
ATOM     37  H3  UNL     1       1.960  27.053  20.035  0.00 -0.03     0.044 H 
BRANCH 5 6
ATOM      6  C2  UNL     1       1.081  25.131  19.808  0.00 -0.19    -0.028 C 
ATOM      7  C3  UNL     1       2.377  24.458  20.257  0.00 -0.24    -0.049 C 
ATOM      8  C4  UNL     1       2.137  24.754  18.782  0.00 -0.30    -0.049 C 
ATOM     38  H4  UNL     1       0.157  24.576  19.879  0.00 -0.03     0.032 H 
ATOM     39  H5  UNL     1       3.113  25.053  20.786  0.00 -0.08     0.027 H 
ATOM     40  H6  UNL     1       2.334  23.425  20.569  0.00 -0.04     0.027 H 
ATOM     41  H7  UNL     1       2.686  25.555  18.301  0.00 -0.09     0.027 H 
ATOM     42  H8  UNL     1       1.918  23.921  18.121  0.00 -0.06     0.027 H 
ENDBRANCH 5 6
ENDBRANCH 4 5
ENDBRANCH 2 4
ENDBRANCH 9 2
BRANCH 14 15
ATOM     15  O3  UNL     1      -5.157  29.740  20.255  0.00 -0.06    -0.495 OA
ATOM     16  C11 UNL     1      -6.367  29.149  20.755  0.00 -0.11     0.078 C 
ATOM     56  H22 UNL     1      -7.194  29.635  20.249  0.00 -0.04     0.067 H 
ATOM     57  H23 UNL     1      -6.456  29.328  21.830  0.00 -0.01     0.067 H 
ATOM     58  H24 UNL     1      -6.380  28.083  20.535  0.00 -0.02     0.067 H 
ENDBRANCH 14 15
TORSDOF 9
ENDMDL
MODEL 10
REMARK WATVina v2023.12.13
REMARK WATVINA RESULT:      -6.9
REMARK SCOREN: vdw     :hbond   :elec    :desol   :clash   :torsion  
REMARK SCOREV: -40.26  :-0.63   :-2.58   :0.00    :0.17    :0.32    
REMARK  Name = AAX
REMARK  9 active torsions:
REMARK  status: ('A' for Active; 'I' for Inactive)
REMARK    1  A    between atoms: _2  and  _4
REMARK    2  A    between atoms: _2  and  _9
REMARK    3  A    between atoms: _4  and  _5
REMARK    4  A    between atoms: _5  and  _6
REMARK    5  A    between atoms: _13  and  _17
REMARK    6  A    between atoms: _14  and  _15
REMARK    7  A    between atoms: _17  and  _18
REMARK    8  A    between atoms: _20  and  _23
REMARK    9  A    between atoms: _25  and  _29
ROOT
ATOM      9  C5  UNL     1      -0.585  34.184  16.802  0.00 -0.20     0.084 A 
ATOM     10  C6  UNL     1      -1.299  34.488  15.649  0.00 -0.24    -0.038 A 
ATOM     11  C7  UNL     1      -0.847  34.069  14.398  0.00 -0.26    -0.016 A 
ATOM     12  C8  UNL     1       0.617  33.451  16.648  0.00 -0.09    -0.015 A 
ATOM     13  C9  UNL     1       1.111  33.042  15.387  0.00 -0.31     0.086 A 
ATOM     14  C10 UNL     1       0.364  33.361  14.264  0.00 -0.29     0.142 A 
ATOM     43  H9  UNL     1      -2.239  35.034  15.703  0.00 -0.07     0.064 H 
ATOM     44  H10 UNL     1      -1.441  34.319  13.523  0.00 -0.08     0.066 H 
ATOM     45  H11 UNL     1       1.161  33.176  17.550  0.00 -0.06     0.066 H 
ENDROOT
BRANCH 13 17
ATOM     17  N2  UNL     1       2.342  32.407  15.197  0.00 -0.39    -0.306 N 
ATOM     46  H12 UNL     1       2.986  32.901  14.580  0.00 -0.10     0.171 HD
BRANCH 17 18
ATOM     18  C12 UNL     1       2.749  31.296  15.863  0.00 -0.30     0.299 A 
ATOM     19  O4  UNL     1       1.968  30.712  16.790  0.00 -0.16    -0.423 O 
ATOM     20  C13 UNL     1       2.634  29.581  17.127  0.00 -0.25     0.156 A 
ATOM     21  C14 UNL     1       3.852  29.550  16.450  0.00 -0.24     0.076 A 
ATOM     22  N3  UNL     1       3.921  30.633  15.623  0.00 -0.18    -0.201 NA
ATOM     47  H13 UNL     1       4.633  28.805  16.504  0.00  0.18     0.088 H 
BRANCH 20 23
ATOM     23  C15 UNL     1       2.066  28.743  18.180  0.00 -0.30     0.020 A 
ATOM     24  C16 UNL     1       1.074  29.235  19.028  0.00 -0.24    -0.043 A 
ATOM     25  C17 UNL     1       0.505  28.401  19.991  0.00 -0.18    -0.016 A 
ATOM     26  C18 UNL     1       0.884  27.044  20.064  0.00 -0.16    -0.054 A 
ATOM     27  C19 UNL     1       1.818  26.557  19.154  0.00 -0.15    -0.061 A 
ATOM     28  C20 UNL     1       2.402  27.385  18.217  0.00 -0.26    -0.051 A 
ATOM     48  H14 UNL     1       0.797  30.283  18.980  0.00 -0.04     0.064 H 
ATOM     49  H15 UNL     1       0.439  26.385  20.794  0.00 -0.03     0.063 H 
ATOM     50  H16 UNL     1       2.122  25.514  19.198  0.00 -0.06     0.062 H 
ATOM     51  H17 UNL     1       3.157  26.982  17.546  0.00 -0.11     0.063 H 
BRANCH 25 29
ATOM     29  C21 UNL     1      -0.519  28.966  20.924  0.00 -0.12     0.000 A 
ATOM     30  C22 UNL     1      -0.283  29.039  22.307  0.00 -0.18     0.035 A 
ATOM     31  N4  UNL     1      -1.187  29.578  23.157  0.00 -0.66    -0.264 NA
ATOM     32  C23 UNL     1      -2.352  30.046  22.695  0.00 -0.09     0.027 A 
ATOM     33  C24 UNL     1      -2.638  30.010  21.327  0.00 -0.05    -0.043 A 
ATOM     34  C25 UNL     1      -1.727  29.447  20.427  0.00 -0.09    -0.051 A 
ATOM     52  H18 UNL     1       0.632  28.680  22.752  0.00 -0.07     0.085 H 
ATOM     53  H19 UNL     1      -3.028  30.494  23.410  0.00 -0.01     0.084 H 
ATOM     54  H20 UNL     1      -3.553  30.449  20.950  0.00 -0.01     0.064 H 
ATOM     55  H21 UNL     1      -1.976  29.421  19.371  0.00 -0.04     0.063 H 
ENDBRANCH 25 29
ENDBRANCH 20 23
ENDBRANCH 17 18
ENDBRANCH 13 17
BRANCH 9 2
ATOM      1  O1  UNL     1      -0.306  34.303  19.285  0.00 -0.12    -0.207 OA
ATOM      2  S1  UNL     1      -1.201  34.657  18.254  0.00 -0.36     0.240 S 
ATOM      3  O2  UNL     1      -2.424  33.930  18.372  0.00 -0.07    -0.207 OA
BRANCH 2 4
ATOM      4  N1  UNL     1      -1.348  36.240  18.333  0.00 -0.17    -0.211 N 
ATOM     35  H1  UNL     1      -1.066  36.740  17.476  0.00  0.11     0.141 HD
BRANCH 4 5
ATOM      5  C1  UNL     1      -1.022  36.878  19.608  0.00 -0.21     0.014 C 
ATOM     36  H2  UNL     1      -1.822  36.720  20.337  0.00 -0.02     0.044 H 
ATOM     37  H3  UNL     1      -0.111  36.412  20.002  0.00 -0.07     0.044 H 
BRANCH 5 6
ATOM      6  C2  UNL     1      -0.738  38.374  19.473  0.00 -0.29    -0.028 C 
ATOM      7  C3  UNL     1      -1.367  39.242  20.562  0.00 -0.22    -0.049 C 
ATOM      8  C4  UNL     1      -1.918  39.274  19.142  0.00 -0.18    -0.049 C 
ATOM     38  H4  UNL     1       0.256  38.615  19.126  0.00 -0.08     0.032 H 
ATOM     39  H5  UNL     1      -1.959  38.760  21.332  0.00 -0.05     0.027 H 
ATOM     40  H6  UNL     1      -0.820  40.109  20.902  0.00 -0.06     0.027 H 
ATOM     41  H7  UNL     1      -2.870  38.804  18.928  0.00 -0.02     0.027 H 
ATOM     42  H8  UNL     1      -1.722  40.152  18.537  0.00 -0.05     0.027 H 
ENDBRANCH 5 6
ENDBRANCH 4 5
ENDBRANCH 2 4
ENDBRANCH 9 2
BRANCH 14 15
ATOM     15  O3  UNL     1       0.851  32.963  13.048  0.00 -0.23    -0.495 OA
ATOM     16  C11 UNL     1       0.243  33.272  11.784  0.00 -0.42     0.078 C 
ATOM     56  H22 UNL     1       0.865  32.832  11.013  0.00 -0.10     0.067 H 
ATOM     57  H23 UNL     1       0.212  34.356  11.637  0.00 -0.10     0.067 H 
ATOM     58  H24 UNL     1      -0.757  32.844  11.736  0.00 -0.07     0.067 H 
ENDBRANCH 14 15
TORSDOF 9
ENDMDL
