AAX
     RDKit          3D

 58 62  0  0  0  0  0  0  0  0999 V2000
    0.1630   30.9367   21.2440 O   0  0  0  0  0  0  0  0  0  0  0  0
   -0.4487   29.6828   21.4548 S   0  0  0  0  0  0  0  0  0  0  0  0
   -0.3697   29.3054   22.8295 O   0  0  0  0  0  0  0  0  0  0  0  0
   -1.9249   29.8185   20.8759 N   0  0  0  0  0  0  0  0  0  0  0  0
   -2.0815   29.7448   19.4231 C   0  0  0  0  0  0  0  0  0  0  0  0
   -3.4125   30.3162   18.9361 C   0  0  0  0  0  0  0  0  0  0  0  0
   -3.3802   30.8844   17.5180 C   0  0  0  0  0  0  0  0  0  0  0  0
   -3.4812   31.8186   18.7165 C   0  0  0  0  0  0  0  0  0  0  0  0
    0.4009   28.5146   20.6632 C   0  0  0  0  0  0  0  0  0  0  0  0
    0.1583   27.1857   20.9877 C   0  0  0  0  0  0  0  0  0  0  0  0
    0.8842   26.1593   20.3818 C   0  0  0  0  0  0  0  0  0  0  0  0
    1.3947   28.7756   19.6886 C   0  0  0  0  0  0  0  0  0  0  0  0
    2.1207   27.7507   19.0387 C   0  0  0  0  0  0  0  0  0  0  0  0
    1.8517   26.4392   19.3975 C   0  0  0  0  0  0  0  0  0  0  0  0
    2.5589   25.4534   18.7615 O   0  0  0  0  0  0  0  0  0  0  0  0
    2.5026   24.0592   19.1030 C   0  0  0  0  0  0  0  0  0  0  0  0
    3.0333   27.9728   18.0031 N   0  0  0  0  0  0  0  0  0  0  0  0
    2.9902   29.0278   17.1496 C   0  0  0  0  0  0  0  0  0  0  0  0
    1.9348   29.8623   17.1222 O   0  0  0  0  0  0  0  0  0  0  0  0
    2.3053   30.8456   16.2655 C   0  0  0  0  0  0  0  0  0  0  0  0
    3.5540   30.5356   15.7283 C   0  0  0  0  0  0  0  0  0  0  0  0
    4.0070   29.3866   16.3066 N   0  0  0  0  0  0  0  0  0  0  0  0
    1.3304   31.8915   15.9666 C   0  0  0  0  0  0  0  0  0  0  0  0
    1.2588   32.4605   14.6954 C   0  0  0  0  0  0  0  0  0  0  0  0
    0.2841   33.4190   14.4164 C   0  0  0  0  0  0  0  0  0  0  0  0
   -0.6696   33.7635   15.3965 C   0  0  0  0  0  0  0  0  0  0  0  0
   -0.6266   33.1230   16.6313 C   0  0  0  0  0  0  0  0  0  0  0  0
    0.3519   32.1939   16.9204 C   0  0  0  0  0  0  0  0  0  0  0  0
    0.2609   34.0539   13.0616 C   0  0  0  0  0  0  0  0  0  0  0  0
    0.0503   35.4344   12.9069 C   0  0  0  0  0  0  0  0  0  0  0  0
    0.0600   36.0252   11.6913 N   0  0  0  0  0  0  0  0  0  0  0  0
    0.2569   35.2948   10.5876 C   0  0  0  0  0  0  0  0  0  0  0  0
    0.4829   33.9186   10.6799 C   0  0  0  0  0  0  0  0  0  0  0  0
    0.4662   33.2795   11.9231 C   0  0  0  0  0  0  0  0  0  0  0  0
   -2.6530   29.3639   21.4466 H   0  0  0  0  0  0  0  0  0  0  0  0
   -1.2556   30.2543   18.9170 H   0  0  0  0  0  0  0  0  0  0  0  0
   -2.0569   28.6895   19.1284 H   0  0  0  0  0  0  0  0  0  0  0  0
   -4.2844   29.7636   19.2541 H   0  0  0  0  0  0  0  0  0  0  0  0
   -2.4467   30.8532   16.9684 H   0  0  0  0  0  0  0  0  0  0  0  0
   -4.2611   30.7699   16.9027 H   0  0  0  0  0  0  0  0  0  0  0  0
   -2.6220   32.4129   19.0043 H   0  0  0  0  0  0  0  0  0  0  0  0
   -4.4305   32.3088   18.9058 H   0  0  0  0  0  0  0  0  0  0  0  0
   -0.5806   26.9207   21.7413 H   0  0  0  0  0  0  0  0  0  0  0  0
    0.6702   25.1341   20.6722 H   0  0  0  0  0  0  0  0  0  0  0  0
    1.6158   29.8165   19.4569 H   0  0  0  0  0  0  0  0  0  0  0  0
    3.7004   27.2167   17.8525 H   0  0  0  0  0  0  0  0  0  0  0  0
    4.1291   31.0910   15.0009 H   0  0  0  0  0  0  0  0  0  0  0  0
    2.0050   32.2051   13.9497 H   0  0  0  0  0  0  0  0  0  0  0  0
   -1.4390   34.4914   15.1859 H   0  0  0  0  0  0  0  0  0  0  0  0
   -1.3535   33.3783   17.3979 H   0  0  0  0  0  0  0  0  0  0  0  0
    0.3812   31.7395   17.9082 H   0  0  0  0  0  0  0  0  0  0  0  0
   -0.1174   36.0859   13.7508 H   0  0  0  0  0  0  0  0  0  0  0  0
    0.2858   35.8185    9.6421 H   0  0  0  0  0  0  0  0  0  0  0  0
    0.7070   33.3425    9.7902 H   0  0  0  0  0  0  0  0  0  0  0  0
    0.6339   32.2080   11.9682 H   0  0  0  0  0  0  0  0  0  0  0  0
    3.1578   23.5345   18.4161 H   0  0  0  0  0  0  0  0  0  0  0  0
    1.4837   23.6824   18.9764 H   0  0  0  0  0  0  0  0  0  0  0  0
    2.8490   23.9107   20.1241 H   0  0  0  0  0  0  0  0  0  0  0  0
  1  2  2  0
  2  3  2  0
  2  4  1  0
  2  9  1  0
  4  5  1  0
  4 35  1  0
  5  6  1  0
  5 36  1  0
  5 37  1  0
  6  7  1  0
  6  8  1  0
  6 38  1  0
  7  8  1  0
  7 39  1  0
  7 40  1  0
  8 41  1  0
  8 42  1  0
  9 10  2  0
  9 12  1  0
 10 11  1  0
 10 43  1  0
 11 14  2  0
 11 44  1  0
 12 13  2  0
 12 45  1  0
 13 14  1  0
 13 17  1  0
 14 15  1  0
 15 16  1  0
 16 56  1  0
 16 57  1  0
 16 58  1  0
 17 18  1  0
 17 46  1  0
 18 19  1  0
 18 22  2  0
 19 20  1  0
 20 21  2  0
 20 23  1  0
 21 22  1  0
 21 47  1  0
 23 24  2  0
 23 28  1  0
 24 25  1  0
 24 48  1  0
 25 26  2  0
 25 29  1  0
 26 27  1  0
 26 49  1  0
 27 28  2  0
 27 50  1  0
 28 51  1  0
 29 30  2  0
 29 34  1  0
 30 31  1  0
 30 52  1  0
 31 32  2  0
 32 33  1  0
 32 53  1  0
 33 34  2  0
 33 54  1  0
 34 55  1  0
M  END
>  <HEADER>  (1) 
    TRANSFERASE                             05-DEC-04   1Y6B              

>  <TITLE>  (1) 
    CRYSTAL STRUCTURE OF VEGFR2 IN COMPLEX WITH A 2-ANILINO-5-ARYL-OXAZOLE
   2 INHIBITOR                                                            

>  <COMPND>  (1) 
    MOL_ID: 1;                                                            
   2 MOLECULE: VASCULAR ENDOTHELIAL GROWTH FACTOR RECEPTOR 2;             
   3 CHAIN: A;                                                            
   4 SYNONYM: VEGFR-2, KINASE INSERT DOMAIN RECEPTOR, PROTEIN-TYROSINE    
   5 KINASE RECEPTOR FLK-1;                                               
   6 EC: 2.7.1.112;                                                       
   7 ENGINEERED: YES                                                      

>  <SOURCE>  (1) 
    MOL_ID: 1;                                                            
   2 ORGANISM_SCIENTIFIC: HOMO SAPIENS;                                   
   3 ORGANISM_COMMON: HUMAN;                                              
   4 ORGANISM_TAXID: 9606;                                                
   5 GENE: KDR, FLK1;                                                     
   6 EXPRESSION_SYSTEM: ESCHERICHIA COLI;                                 
   7 EXPRESSION_SYSTEM_TAXID: 562                                         

>  <KEYWDS>  (1) 
    TRANSFERASE                                                           

>  <EXPDTA>  (1) 
    X-RAY DIFFRACTION                                                     

>  <AUTHOR>  (1) 
    P.A.HARRIS,M.CHEUNG,R.N.HUNTER,M.L.BROWN,J.M.VEAL,R.T.NOLTE,L.WANG,   
   2 W.LIU,R.M.CROSBY,J.H.JOHNSON,A.H.EPPERLY,R.KUMAR,D.K.LUTTRELL,       
   3 J.A.STAFFORD                                                         

>  <REVDAT>  (1) 
   4   11-OCT-17 1Y6B    1       REMARK                                   
   3   13-JUL-11 1Y6B    1       VERSN                                    
   2   24-FEB-09 1Y6B    1       VERSN                                    
   1   07-JUN-05 1Y6B    0                                                

>  <JRNL>  (1) 
      AUTH   P.A.HARRIS,M.CHEUNG,R.N.HUNTER,M.L.BROWN,J.M.VEAL,R.T.NOLTE, 
      AUTH 2 L.WANG,W.LIU,R.M.CROSBY,J.H.JOHNSON,A.H.EPPERLY,R.KUMAR,     
      AUTH 3 D.K.LUTTRELL,J.A.STAFFORD                                    
      TITL   DISCOVERY AND EVALUATION OF 2-ANILINO-5-ARYLOXAZOLES AS A    
      TITL 2 NOVEL CLASS OF VEGFR2 KINASE INHIBITORS.                     
      REF    J.MED.CHEM.                   V.  48  1610 2005              
      REFN                   ISSN 0022-2623                               
      PMID   15743202                                                     
      DOI    10.1021/JM049538W                                            

>  <REMARK>  (1) 
   2                                                                      
   2 RESOLUTION.    2.10 ANGSTROMS.                                       
   3                                                                      
   3 REFINEMENT.                                                          
   3   PROGRAM     : REFMAC 5.2.0005                                      
   3   AUTHORS     : MURSHUDOV,VAGIN,DODSON                               
   3                                                                      
   3    REFINEMENT TARGET : MAXIMUM LIKELIHOOD                            
   3                                                                      
   3  DATA USED IN REFINEMENT.                                            
   3   RESOLUTION RANGE HIGH (ANGSTROMS) : 2.10                           
   3   RESOLUTION RANGE LOW  (ANGSTROMS) : 16.60                          
   3   DATA CUTOFF            (SIGMA(F)) : NULL                           
   3   COMPLETENESS FOR RANGE        (%) : 99.7                           
   3   NUMBER OF REFLECTIONS             : 19994                          
   3                                                                      
   3  FIT TO DATA USED IN REFINEMENT.                                     
   3   CROSS-VALIDATION METHOD          : THROUGHOUT                      
   3   FREE R VALUE TEST SET SELECTION  : RANDOM                          
   3   R VALUE     (WORKING + TEST SET) : 0.194                           
   3   R VALUE            (WORKING SET) : 0.192                           
   3   FREE R VALUE                     : 0.236                           
   3   FREE R VALUE TEST SET SIZE   (%) : 3.300                           
   3   FREE R VALUE TEST SET COUNT      : 675                             
   3                                                                      
   3  FIT IN THE HIGHEST RESOLUTION BIN.                                  
   3   TOTAL NUMBER OF BINS USED           : 20                           
   3   BIN RESOLUTION RANGE HIGH       (A) : 2.10                         
   3   BIN RESOLUTION RANGE LOW        (A) : 2.15                         
   3   REFLECTION IN BIN     (WORKING SET) : 1429                         
   3   BIN COMPLETENESS (WORKING+TEST) (%) : 98.86                        
   3   BIN R VALUE           (WORKING SET) : 0.2170                       
   3   BIN FREE R VALUE SET COUNT          : 39                           
   3   BIN FREE R VALUE                    : 0.3380                       
   3                                                                      
   3  NUMBER OF NON-HYDROGEN ATOMS USED IN REFINEMENT.                    
   3   PROTEIN ATOMS            : 2135                                    
   3   NUCLEIC ACID ATOMS       : 0                                       
   3   HETEROGEN ATOMS          : 34                                      
   3   SOLVENT ATOMS            : 151                                     
   3                                                                      
   3  B VALUES.                                                           
   3   B VALUE TYPE : LIKELY RESIDUAL                                     
   3   FROM WILSON PLOT           (A**2) : 36.00                          
   3   MEAN B VALUE      (OVERALL, A**2) : 35.60                          
   3   OVERALL ANISOTROPIC B VALUE.                                       
   3    B11 (A**2) : 1.65000                                              
   3    B22 (A**2) : -0.02000                                             
   3    B33 (A**2) : -1.63000                                             
   3    B12 (A**2) : 0.00000                                              
   3    B13 (A**2) : 0.00000                                              
   3    B23 (A**2) : 0.00000                                              
   3                                                                      
   3  ESTIMATED OVERALL COORDINATE ERROR.                                 
   3   ESU BASED ON R VALUE                            (A): 0.190         
   3   ESU BASED ON FREE R VALUE                       (A): 0.171         
   3   ESU BASED ON MAXIMUM LIKELIHOOD                 (A): 0.124         
   3   ESU FOR B VALUES BASED ON MAXIMUM LIKELIHOOD (A**2): 8.890         
   3                                                                      
   3 CORRELATION COEFFICIENTS.                                            
   3   CORRELATION COEFFICIENT FO-FC      : 0.955                         
   3   CORRELATION COEFFICIENT FO-FC FREE : 0.935                         
   3                                                                      
   3  RMS DEVIATIONS FROM IDEAL VALUES        COUNT    RMS    WEIGHT      
   3   BOND LENGTHS REFINED ATOMS        (A):  2224 ; 0.016 ; 0.022       
   3   BOND LENGTHS OTHERS               (A):  2048 ; 0.002 ; 0.020       
   3   BOND ANGLES REFINED ATOMS   (DEGREES):  3003 ; 1.539 ; 1.982       
   3   BOND ANGLES OTHERS          (DEGREES):  4751 ; 0.981 ; 3.000       
   3   TORSION ANGLES, PERIOD 1    (DEGREES):   261 ; 6.620 ; 5.000       
   3   TORSION ANGLES, PERIOD 2    (DEGREES):    96 ;32.100 ;22.708       
   3   TORSION ANGLES, PERIOD 3    (DEGREES):   388 ;15.055 ;15.000       
   3   TORSION ANGLES, PERIOD 4    (DEGREES):    17 ;23.264 ;15.000       
   3   CHIRAL-CENTER RESTRAINTS       (A**3):   326 ; 0.096 ; 0.200       
   3   GENERAL PLANES REFINED ATOMS      (A):  2398 ; 0.007 ; 0.020       
   3   GENERAL PLANES OTHERS             (A):   475 ; 0.007 ; 0.020       
   3   NON-BONDED CONTACTS REFINED ATOMS (A):   427 ; 0.216 ; 0.200       
   3   NON-BONDED CONTACTS OTHERS        (A):  1935 ; 0.184 ; 0.200       
   3   NON-BONDED TORSION REFINED ATOMS  (A):  1045 ; 0.183 ; 0.200       
   3   NON-BONDED TORSION OTHERS         (A):  1195 ; 0.084 ; 0.200       
   3   H-BOND (X...Y) REFINED ATOMS      (A):   114 ; 0.192 ; 0.200       
   3   H-BOND (X...Y) OTHERS             (A):  NULL ;  NULL ;  NULL       
   3   POTENTIAL METAL-ION REFINED ATOMS (A):  NULL ;  NULL ;  NULL       
   3   POTENTIAL METAL-ION OTHERS        (A):  NULL ;  NULL ;  NULL       
   3   SYMMETRY VDW REFINED ATOMS        (A):     3 ; 0.037 ; 0.200       
   3   SYMMETRY VDW OTHERS               (A):    30 ; 0.161 ; 0.200       
   3   SYMMETRY H-BOND REFINED ATOMS     (A):     1 ; 0.499 ; 0.200       
   3   SYMMETRY H-BOND OTHERS            (A):  NULL ;  NULL ;  NULL       
   3   SYMMETRY METAL-ION REFINED ATOMS  (A):  NULL ;  NULL ;  NULL       
   3   SYMMETRY METAL-ION OTHERS         (A):  NULL ;  NULL ;  NULL       
   3                                                                      
   3  ISOTROPIC THERMAL FACTOR RESTRAINTS.     COUNT   RMS    WEIGHT      
   3   MAIN-CHAIN BOND REFINED ATOMS  (A**2):  1709 ; 1.362 ; 1.500       
   3   MAIN-CHAIN BOND OTHER ATOMS    (A**2):   537 ; 0.226 ; 1.500       
   3   MAIN-CHAIN ANGLE REFINED ATOMS (A**2):  2132 ; 1.545 ; 2.000       
   3   MAIN-CHAIN ANGLE OTHER ATOMS   (A**2):  NULL ;  NULL ;  NULL       
   3   SIDE-CHAIN BOND REFINED ATOMS  (A**2):  1071 ; 2.256 ; 3.000       
   3   SIDE-CHAIN BOND OTHER ATOMS    (A**2):  NULL ;  NULL ;  NULL       
   3   SIDE-CHAIN ANGLE REFINED ATOMS (A**2):   868 ; 3.213 ; 4.500       
   3   SIDE-CHAIN ANGLE OTHER ATOMS   (A**2):  NULL ;  NULL ;  NULL       
   3   LONG RANGE B REFINED ATOMS     (A**2):  NULL ;  NULL ;  NULL       
   3   LONG RANGE B OTHER ATOMS       (A**2):  NULL ;  NULL ;  NULL       
   3                                                                      
   3 ANISOTROPIC THERMAL FACTOR RESTRAINTS.    COUNT   RMS   WEIGHT       
   3   RIGID-BOND RESTRAINTS          (A**2):  NULL ;  NULL ;  NULL       
   3   SPHERICITY; FREE ATOMS         (A**2):  NULL ;  NULL ;  NULL       
   3   SPHERICITY; BONDED ATOMS       (A**2):  NULL ;  NULL ;  NULL       
   3                                                                      
   3  NCS RESTRAINTS STATISTICS                                           
   3   NUMBER OF DIFFERENT NCS GROUPS : NULL                              
   3                                                                      
   3  TLS DETAILS                                                         
   3   NUMBER OF TLS GROUPS  : 2                                          
   3                                                                      
   3   TLS GROUP : 1                                                      
   3    NUMBER OF COMPONENTS GROUP : 1                                    
   3    COMPONENTS        C SSSEQI   TO  C SSSEQI                         
   3    RESIDUE RANGE :   A   817        A   920                          
   3    ORIGIN FOR THE GROUP (A):   2.1180  34.2230   6.1800              
   3    T TENSOR                                                          
   3      T11:  -0.0728 T22:  -0.0119                                     
   3      T33:  -0.0658 T12:   0.0054                                     
   3      T13:   0.0011 T23:  -0.0100                                     
   3    L TENSOR                                                          
   3      L11:   1.6141 L22:   2.1684                                     
   3      L33:   2.8238 L12:   0.2375                                     
   3      L13:   0.0516 L23:   0.6725                                     
   3    S TENSOR                                                          
   3      S11:   0.0003 S12:   0.0706 S13:   0.0597                       
   3      S21:  -0.0606 S22:  -0.0193 S23:   0.1841                       
   3      S31:  -0.1453 S32:  -0.0900 S33:   0.0190                       
   3                                                                      
   3   TLS GROUP : 2                                                      
   3    NUMBER OF COMPONENTS GROUP : 1                                    
   3    COMPONENTS        C SSSEQI   TO  C SSSEQI                         
   3    RESIDUE RANGE :   A   921        A  1166                          
   3    ORIGIN FOR THE GROUP (A):   7.6840  41.4310  32.3890              
   3    T TENSOR                                                          
   3      T11:  -0.0008 T22:  -0.0514                                     
   3      T33:  -0.1174 T12:   0.0099                                     
   3      T13:  -0.0039 T23:  -0.0331                                     
   3    L TENSOR                                                          
   3      L11:   0.9418 L22:   2.5442                                     
   3      L33:   3.0375 L12:   0.5907                                     
   3      L13:   0.3750 L23:   2.0136                                     
   3    S TENSOR                                                          
   3      S11:  -0.0587 S12:  -0.0163 S13:   0.0285                       
   3      S21:   0.2259 S22:  -0.0183 S23:   0.0624                       
   3      S31:   0.0971 S32:  -0.0458 S33:   0.0770                       
   3                                                                      
   3  BULK SOLVENT MODELLING.                                             
   3   METHOD USED : MASK                                                 
   3   PARAMETERS FOR MASK CALCULATION                                    
   3   VDW PROBE RADIUS   : 1.20                                          
   3   ION PROBE RADIUS   : 0.80                                          
   3   SHRINKAGE RADIUS   : 0.80                                          
   3                                                                      
   3  OTHER REFINEMENT REMARKS: HYDROGENS HAVE BEEN ADDED IN THE RIDING   
   3  POSITIONS                                                           
   4                                                                      
   4 1Y6B COMPLIES WITH FORMAT V. 3.30, 13-JUL-11                         
 100                                                                      
 100 THIS ENTRY HAS BEEN PROCESSED BY RCSB ON 09-DEC-04.                  
 100 THE DEPOSITION ID IS D_1000031170.                                   
 200                                                                      
 200 EXPERIMENTAL DETAILS                                                 
 200  EXPERIMENT TYPE                : X-RAY DIFFRACTION                  
 200  DATE OF DATA COLLECTION        : NULL                               
 200  TEMPERATURE           (KELVIN) : NULL                               
 200  PH                             : NULL                               
 200  NUMBER OF CRYSTALS USED        : 1                                  
 200                                                                      
 200  SYNCHROTRON              (Y/N) : Y                                  
 200  RADIATION SOURCE               : APS                                
 200  BEAMLINE                       : 17-ID                              
 200  X-RAY GENERATOR MODEL          : NULL                               
 200  MONOCHROMATIC OR LAUE    (M/L) : M                                  
 200  WAVELENGTH OR RANGE        (A) : 1.0                                
 200  MONOCHROMATOR                  : NULL                               
 200  OPTICS                         : NULL                               
 200                                                                      
 200  DETECTOR TYPE                  : NULL                               
 200  DETECTOR MANUFACTURER          : NULL                               
 200  INTENSITY-INTEGRATION SOFTWARE : MAR                                
 200  DATA SCALING SOFTWARE          : SCALEPACK                          
 200                                                                      
 200  NUMBER OF UNIQUE REFLECTIONS   : 20768                              
 200  RESOLUTION RANGE HIGH      (A) : 2.100                              
 200  RESOLUTION RANGE LOW       (A) : 20.000                             
 200  REJECTION CRITERIA  (SIGMA(I)) : -3.000                             
 200                                                                      
 200 OVERALL.                                                             
 200  COMPLETENESS FOR RANGE     (%) : 99.5                               
 200  DATA REDUNDANCY                : 6.790                              
 200  R MERGE                    (I) : 0.04500                            
 200  R SYM                      (I) : NULL                               
 200  <I/SIGMA(I)> FOR THE DATA SET  : 42.9000                            
 200                                                                      
 200 IN THE HIGHEST RESOLUTION SHELL.                                     
 200  HIGHEST RESOLUTION SHELL, RANGE HIGH (A) : 2.10                     
 200  HIGHEST RESOLUTION SHELL, RANGE LOW  (A) : 2.17                     
 200  COMPLETENESS FOR SHELL     (%) : 99.1                               
 200  DATA REDUNDANCY IN SHELL       : NULL                               
 200  R MERGE FOR SHELL          (I) : 0.35500                            
 200  R SYM FOR SHELL            (I) : NULL                               
 200  <I/SIGMA(I)> FOR SHELL         : 5.460                              
 200                                                                      
 200 DIFFRACTION PROTOCOL: SINGLE WAVELENGTH                              
 200 METHOD USED TO DETERMINE THE STRUCTURE: MOLECULAR REPLACEMENT        
 200 SOFTWARE USED: AMORE                                                 
 200 STARTING MODEL: NULL                                                 
 200                                                                      
 200 REMARK: NULL                                                         
 280                                                                      
 280 CRYSTAL                                                              
 280 SOLVENT CONTENT, VS   (%): 40.17                                     
 280 MATTHEWS COEFFICIENT, VM (ANGSTROMS**3/DA): 2.06                     
 280                                                                      
 280 CRYSTALLIZATION CONDITIONS: NULL                                     
 290                                                                      
 290 CRYSTALLOGRAPHIC SYMMETRY                                            
 290 SYMMETRY OPERATORS FOR SPACE GROUP: P 21 21 21                       
 290                                                                      
 290      SYMOP   SYMMETRY                                                
 290     NNNMMM   OPERATOR                                                
 290       1555   X,Y,Z                                                   
 290       2555   -X+1/2,-Y,Z+1/2                                         
 290       3555   -X,Y+1/2,-Z+1/2                                         
 290       4555   X+1/2,-Y+1/2,-Z                                         
 290                                                                      
 290     WHERE NNN -> OPERATOR NUMBER                                     
 290           MMM -> TRANSLATION VECTOR                                  
 290                                                                      
 290 CRYSTALLOGRAPHIC SYMMETRY TRANSFORMATIONS                            
 290 THE FOLLOWING TRANSFORMATIONS OPERATE ON THE ATOM/HETATM             
 290 RECORDS IN THIS ENTRY TO PRODUCE CRYSTALLOGRAPHICALLY                
 290 RELATED MOLECULES.                                                   
 290   SMTRY1   1  1.000000  0.000000  0.000000        0.00000            
 290   SMTRY2   1  0.000000  1.000000  0.000000        0.00000            
 290   SMTRY3   1  0.000000  0.000000  1.000000        0.00000            
 290   SMTRY1   2 -1.000000  0.000000  0.000000       18.77200            
 290   SMTRY2   2  0.000000 -1.000000  0.000000        0.00000            
 290   SMTRY3   2  0.000000  0.000000  1.000000       48.38350            
 290   SMTRY1   3 -1.000000  0.000000  0.000000        0.00000            
 290   SMTRY2   3  0.000000  1.000000  0.000000       47.16650            
 290   SMTRY3   3  0.000000  0.000000 -1.000000       48.38350            
 290   SMTRY1   4  1.000000  0.000000  0.000000       18.77200            
 290   SMTRY2   4  0.000000 -1.000000  0.000000       47.16650            
 290   SMTRY3   4  0.000000  0.000000 -1.000000        0.00000            
 290                                                                      
 290 REMARK: NULL                                                         
 300                                                                      
 300 BIOMOLECULE: 1                                                       
 300 SEE REMARK 350 FOR THE AUTHOR PROVIDED AND/OR PROGRAM                
 300 GENERATED ASSEMBLY INFORMATION FOR THE STRUCTURE IN                  
 300 THIS ENTRY. THE REMARK MAY ALSO PROVIDE INFORMATION ON               
 300 BURIED SURFACE AREA.                                                 
 350                                                                      
 350 COORDINATES FOR A COMPLETE MULTIMER REPRESENTING THE KNOWN           
 350 BIOLOGICALLY SIGNIFICANT OLIGOMERIZATION STATE OF THE                
 350 MOLECULE CAN BE GENERATED BY APPLYING BIOMT TRANSFORMATIONS          
 350 GIVEN BELOW.  BOTH NON-CRYSTALLOGRAPHIC AND                          
 350 CRYSTALLOGRAPHIC OPERATIONS ARE GIVEN.                               
 350                                                                      
 350 BIOMOLECULE: 1                                                       
 350 AUTHOR DETERMINED BIOLOGICAL UNIT: MONOMERIC                         
 350 APPLY THE FOLLOWING TO CHAINS: A                                     
 350   BIOMT1   1  1.000000  0.000000  0.000000        0.00000            
 350   BIOMT2   1  0.000000  1.000000  0.000000        0.00000            
 350   BIOMT3   1  0.000000  0.000000  1.000000        0.00000            
 465                                                                      
 465 MISSING RESIDUES                                                     
 465 THE FOLLOWING RESIDUES WERE NOT LOCATED IN THE                       
 465 EXPERIMENT. (M=MODEL NUMBER; RES=RESIDUE NAME; C=CHAIN               
 465 IDENTIFIER; SSSEQ=SEQUENCE NUMBER; I=INSERTION CODE.)                
 465                                                                      
 465   M RES C SSSEQI                                                     
 465     MET A   804                                                      
 465     ASP A   805                                                      
 465     PRO A   806                                                      
 465     ASP A   807                                                      
 465     GLU A   808                                                      
 465     LEU A   809                                                      
 465     PRO A   810                                                      
 465     LEU A   811                                                      
 465     ASP A   812                                                      
 465     GLU A   813                                                      
 465     HIS A   814                                                      
 465     CYS A   815                                                      
 465     GLU A   816                                                      
 465     ALA A   842                                                      
 465     PHE A   843                                                      
 465     GLU A   870                                                      
 465     GLY A   871                                                      
 465     LYS A   937                                                      
 465     THR A   938                                                      
 465     LYS A   939                                                      
 465     GLY A   940                                                      
 465     ALA A   941                                                      
 465     ARG A   942                                                      
 465     PHE A   943                                                      
 465     ARG A   944                                                      
 465     GLN A   945                                                      
 465     GLY A   946                                                      
 465     LYS A   947                                                      
 465     ASP A   948                                                      
 465     TYR A   949                                                      
 465     VAL A   950                                                      
 465     GLY A   951                                                      
 465     ALA A   952                                                      
 465     ILE A   953                                                      
 465     PRO A   954                                                      
 465     VAL A   955                                                      
 465     ASP A   956                                                      
 465     LEU A   957                                                      
 465     LYS A   958                                                      
 465     ARG A   959                                                      
 465     ARG A   960                                                      
 465     LEU A   961                                                      
 465     ASP A   962                                                      
 465     SER A   963                                                      
 465     ILE A   964                                                      
 465     THR A   965                                                      
 465     SER A   966                                                      
 465     SER A   967                                                      
 465     GLN A   968                                                      
 465     SER A   969                                                      
 465     SER A   970                                                      
 465     ALA A   971                                                      
 465     SER A   972                                                      
 465     SER A   973                                                      
 465     GLY A   974                                                      
 465     PHE A   975                                                      
 465     VAL A   976                                                      
 465     GLU A   977                                                      
 465     GLU A   978                                                      
 465     LYS A   979                                                      
 465     SER A   980                                                      
 465     LEU A   981                                                      
 465     SER A   982                                                      
 465     ASP A   983                                                      
 465     VAL A   984                                                      
 465     GLU A   985                                                      
 465     GLU A   986                                                      
 465     GLU A   987                                                      
 465     GLU A   988                                                      
 465     ALA A   989                                                      
 465     PRO A   990                                                      
 465     GLU A   991                                                      
 465     ASP A   992                                                      
 465     LEU A   993                                                      
 465     TYR A   994                                                      
 465     LYS A   995                                                      
 465     ASP A   996                                                      
 465     GLY A  1046                                                      
 465     LEU A  1047                                                      
 465     ALA A  1048                                                      
 465     ARG A  1049                                                      
 465     ASP A  1050                                                      
 465     ILE A  1051                                                      
 465     TYR A  1052                                                      
 465     LYS A  1053                                                      
 465     ASP A  1054                                                      
 465     PRO A  1055                                                      
 465     ASP A  1056                                                      
 465     TYR A  1057                                                      
 465     VAL A  1058                                                      
 465     ARG A  1059                                                      
 465     LYS A  1060                                                      
 465     GLY A  1061                                                      
 465     ASP A  1062                                                      
 465     ALA A  1063                                                      
 465     ARG A  1064                                                      
 465     LEU A  1065                                                      
 465     GLN A  1167                                                      
 465     GLN A  1168                                                      
 465     ASP A  1169                                                      
 500                                                                      
 500 GEOMETRY AND STEREOCHEMISTRY                                         
 500 SUBTOPIC: TORSION ANGLES                                             
 500                                                                      
 500 TORSION ANGLES OUTSIDE THE EXPECTED RAMACHANDRAN REGIONS:            
 500 (M=MODEL NUMBER; RES=RESIDUE NAME; C=CHAIN IDENTIFIER;               
 500 SSEQ=SEQUENCE NUMBER; I=INSERTION CODE).                             
 500                                                                      
 500 STANDARD TABLE:                                                      
 500 FORMAT:(10X,I3,1X,A3,1X,A1,I4,A1,4X,F7.2,3X,F7.2)                    
 500                                                                      
 500 EXPECTED VALUES: GJ KLEYWEGT AND TA JONES (1996). PHI/PSI-           
 500 CHOLOGY: RAMACHANDRAN REVISITED. STRUCTURE 4, 1395 - 1400            
 500                                                                      
 500  M RES CSSEQI        PSI       PHI                                   
 500    LYS A 856      -12.94     75.92                                   
 500    ALA A 858       48.83    -77.44                                   
 500    ARG A1025      -12.31     87.46                                   
 500    ASP A1026       56.20   -142.60                                   
 500    SER A1035     -165.52   -114.28                                   
 500    ASN A1038       29.33     49.59                                   
 500    ARG A1078       -0.45     64.77                                   
 500                                                                      
 500 REMARK: NULL                                                         
 800                                                                      
 800 SITE                                                                 
 800 SITE_IDENTIFIER: AC1                                                 
 800 EVIDENCE_CODE: SOFTWARE                                              
 800 SITE_DESCRIPTION: BINDING SITE FOR RESIDUE AAX A 201                 
 900                                                                      
 900 RELATED ENTRIES                                                      
 900 RELATED ID: 1VR2   RELATED DB: PDB                                   
 900 UNLIGANDED STRUCTURE                                                 
 900 RELATED ID: 1Y6A   RELATED DB: PDB                                   
 900 CRYSTAL STRUCTURE OF VEGFR2 IN COMPLEX WITH A 2-ANILINO-5-ARYL-      
 900 OXAZOLE INHIBITOR                                                    

>  <DBREF>  (1) 
 1Y6B A  804  1169  UNP    P35968   VGFR2_HUMAN    806   1171             

>  <SEQRES>  (1) 
   1 A  366  MET ASP PRO ASP GLU LEU PRO LEU ASP GLU HIS CYS GLU          
   2 A  366  ARG LEU PRO TYR ASP ALA SER LYS TRP GLU PHE PRO ARG          
   3 A  366  ASP ARG LEU LYS LEU GLY LYS PRO LEU GLY ARG GLY ALA          
   4 A  366  PHE GLY GLN VAL ILE GLU ALA ASP ALA PHE GLY ILE ASP          
   5 A  366  LYS THR ALA THR CYS ARG THR VAL ALA VAL LYS MET LEU          
   6 A  366  LYS GLU GLY ALA THR HIS SER GLU HIS ARG ALA LEU MET          
   7 A  366  SER GLU LEU LYS ILE LEU ILE HIS ILE GLY HIS HIS LEU          
   8 A  366  ASN VAL VAL ASN LEU LEU GLY ALA CYS THR LYS PRO GLY          
   9 A  366  GLY PRO LEU MET VAL ILE VAL GLU PHE CYS LYS PHE GLY          
  10 A  366  ASN LEU SER THR TYR LEU ARG SER LYS ARG ASN GLU PHE          
  11 A  366  VAL PRO TYR LYS THR LYS GLY ALA ARG PHE ARG GLN GLY          
  12 A  366  LYS ASP TYR VAL GLY ALA ILE PRO VAL ASP LEU LYS ARG          
  13 A  366  ARG LEU ASP SER ILE THR SER SER GLN SER SER ALA SER          
  14 A  366  SER GLY PHE VAL GLU GLU LYS SER LEU SER ASP VAL GLU          
  15 A  366  GLU GLU GLU ALA PRO GLU ASP LEU TYR LYS ASP PHE LEU          
  16 A  366  THR LEU GLU HIS LEU ILE CYS TYR SER PHE GLN VAL ALA          
  17 A  366  LYS GLY MET GLU PHE LEU ALA SER ARG LYS CYS ILE HIS          
  18 A  366  ARG ASP LEU ALA ALA ARG ASN ILE LEU LEU SER GLU LYS          
  19 A  366  ASN VAL VAL LYS ILE CYS ASP PHE GLY LEU ALA ARG ASP          
  20 A  366  ILE TYR LYS ASP PRO ASP TYR VAL ARG LYS GLY ASP ALA          
  21 A  366  ARG LEU PRO LEU LYS TRP MET ALA PRO GLU THR ILE PHE          
  22 A  366  ASP ARG VAL TYR THR ILE GLN SER ASP VAL TRP SER PHE          
  23 A  366  GLY VAL LEU LEU TRP GLU ILE PHE SER LEU GLY ALA SER          
  24 A  366  PRO TYR PRO GLY VAL LYS ILE ASP GLU GLU PHE CYS ARG          
  25 A  366  ARG LEU LYS GLU GLY THR ARG MET ARG ALA PRO ASP TYR          
  26 A  366  THR THR PRO GLU MET TYR GLN THR MET LEU ASP CYS TRP          
  27 A  366  HIS GLY GLU PRO SER GLN ARG PRO THR PHE SER GLU LEU          
  28 A  366  VAL GLU HIS LEU GLY ASN LEU LEU GLN ALA ASN ALA GLN          
  29 A  366  GLN ASP                                                      

>  <HET>  (1) 
 AAX  A 201      34                                                       

>  <HETNAM>  (1) 
     AAX N-(CYCLOPROPYLMETHYL)-4-(METHYLOXY)-3-({5-[3-(3-                 
   2 AAX  PYRIDINYL)PHENYL]-1,3-OXAZOL-2-YL}AMINO)                        
   3 AAX  BENZENESULFONAMIDE                                              

>  <FORMUL>  (1) 
   2  AAX    C25 H24 N4 O4 S                                              
   3  HOH   *151(H2 O)                                                    

>  <HELIX>  (1) 
   1   1 ASP A  821  GLU A  826  1                                   6
   2   2 PRO A  828  ASP A  830  1                                   3
   3   3 THR A  873  GLY A  891  1                                  19
   4   4 ASN A  921  LYS A  929  1                                   9
   5   5 THR A  999  ARG A 1020  1                                  22
   6   6 ALA A 1028  ARG A 1030  1                                   3
   7   7 PRO A 1066  ARG A 1078  1                                  13
   8   8 THR A 1081  SER A 1098  1                                  18
   9   9 ASP A 1110  GLY A 1120  1                                  11
  10  10 THR A 1130  TRP A 1141  1                                  12
  11  11 GLU A 1144  ARG A 1148  1                                   5
  12  12 THR A 1150  ALA A 1166  1                                  17

>  <SHEET>  (1) 
   1   1 1 LEU A 832  GLY A 839  0
   2   2 1 GLN A 845  PHE A 852  0
   3   3 1 CYS A 860  MET A 867  0
   4   4 1 LEU A 899  CYS A 903  0
   5   5 1 MET A 911  GLU A 915  0
   6   6 1 ILE A1032  LEU A1034  0
   7   7 1 VAL A1040  ILE A1042  0

>  <SITE>  (1) 
   1 AC1 16 HOH A  75  HOH A 128  LEU A 838  ALA A 864                    
   2 AC1 16 LYS A 866  GLU A 883  VAL A 912  VAL A 914                    
   3 AC1 16 GLU A 915  PHE A 916  CYS A 917  LYS A 918                    
   4 AC1 16 GLY A 920  ASN A 921  LEU A1033  PHE A1045                    

>  <ORIGX1>  (1) 
      1.000000  0.000000  0.000000        0.00000                         

>  <ORIGX2>  (1) 
      0.000000  1.000000  0.000000        0.00000                         

>  <ORIGX3>  (1) 
      0.000000  0.000000  1.000000        0.00000                         

>  <SCALE1>  (1) 
      0.026635  0.000000  0.000000        0.00000                         

>  <SCALE2>  (1) 
      0.000000  0.010601  0.000000        0.00000                         

>  <SCALE3>  (1) 
      0.000000  0.000000  0.010334        0.00000                         

>  <MolID>  (1) 
0

>  <ConfID>  (1) 
1

>  <Score>  (1) 
-9.60

>  <VDW>  (1) 
-49.55

>  <Hbond>  (1) 
-1.87

>  <Electrop>  (1) 
-3.19

$$$$
AAX
     RDKit          3D

 58 62  0  0  0  0  0  0  0  0999 V2000
   -0.6535   29.2439   23.0511 O   0  0  0  0  0  0  0  0  0  0  0  0
   -0.5809   29.6267   21.6949 S   0  0  0  0  0  0  0  0  0  0  0  0
   -1.8785   29.6303   21.0993 O   0  0  0  0  0  0  0  0  0  0  0  0
    0.1722   31.0287   21.6805 N   0  0  0  0  0  0  0  0  0  0  0  0
   -0.5873   32.1989   22.1210 C   0  0  0  0  0  0  0  0  0  0  0  0
   -0.0931   33.5022   21.4944 C   0  0  0  0  0  0  0  0  0  0  0  0
   -1.1887   34.5310   21.2185 C   0  0  0  0  0  0  0  0  0  0  0  0
   -0.5247   33.7898   20.0657 C   0  0  0  0  0  0  0  0  0  0  0  0
    0.2535   28.4891   20.8446 C   0  0  0  0  0  0  0  0  0  0  0  0
   -0.0719   27.1517   21.0335 C   0  0  0  0  0  0  0  0  0  0  0  0
    0.6355   26.1454   20.3745 C   0  0  0  0  0  0  0  0  0  0  0  0
    1.3120   28.7814   19.9505 C   0  0  0  0  0  0  0  0  0  0  0  0
    2.0222   27.7804   19.2479 C   0  0  0  0  0  0  0  0  0  0  0  0
    1.6694   26.4587   19.4711 C   0  0  0  0  0  0  0  0  0  0  0  0
    2.3619   25.4964   18.7849 O   0  0  0  0  0  0  0  0  0  0  0  0
    2.5984   24.1632   19.2648 C   0  0  0  0  0  0  0  0  0  0  0  0
    3.0014   28.0438   18.2854 N   0  0  0  0  0  0  0  0  0  0  0  0
    2.9212   29.0265   17.3519 C   0  0  0  0  0  0  0  0  0  0  0  0
    1.8697   29.8651   17.3081 O   0  0  0  0  0  0  0  0  0  0  0  0
    2.2022   30.7725   16.3572 C   0  0  0  0  0  0  0  0  0  0  0  0
    3.4215   30.4092   15.7870 C   0  0  0  0  0  0  0  0  0  0  0  0
    3.8971   29.3070   16.4342 N   0  0  0  0  0  0  0  0  0  0  0  0
    1.2186   31.7991   16.0219 C   0  0  0  0  0  0  0  0  0  0  0  0
    1.1920   32.3769   14.7529 C   0  0  0  0  0  0  0  0  0  0  0  0
    0.2097   33.3159   14.4369 C   0  0  0  0  0  0  0  0  0  0  0  0
   -0.7949   33.6311   15.3751 C   0  0  0  0  0  0  0  0  0  0  0  0
   -0.7936   32.9815   16.6058 C   0  0  0  0  0  0  0  0  0  0  0  0
    0.1914   32.0719   16.9323 C   0  0  0  0  0  0  0  0  0  0  0  0
    0.2337   33.9613   13.0870 C   0  0  0  0  0  0  0  0  0  0  0  0
    0.0478   35.3459   12.9376 C   0  0  0  0  0  0  0  0  0  0  0  0
    0.1000   35.9458   11.7275 N   0  0  0  0  0  0  0  0  0  0  0  0
    0.3171   35.2210   10.6239 C   0  0  0  0  0  0  0  0  0  0  0  0
    0.5202   33.8409   10.7115 C   0  0  0  0  0  0  0  0  0  0  0  0
    0.4595   33.1927   11.9486 C   0  0  0  0  0  0  0  0  0  0  0  0
    1.1641   30.9857   21.9577 H   0  0  0  0  0  0  0  0  0  0  0  0
   -1.6539   32.0714   21.9110 H   0  0  0  0  0  0  0  0  0  0  0  0
   -0.4675   32.2974   23.2058 H   0  0  0  0  0  0  0  0  0  0  0  0
    0.8615   33.8470   21.8636 H   0  0  0  0  0  0  0  0  0  0  0  0
   -2.2122   34.2782   21.4699 H   0  0  0  0  0  0  0  0  0  0  0  0
   -0.9478   35.5774   21.3399 H   0  0  0  0  0  0  0  0  0  0  0  0
   -1.0754   33.0203   19.5376 H   0  0  0  0  0  0  0  0  0  0  0  0
    0.1676   34.3378   19.4349 H   0  0  0  0  0  0  0  0  0  0  0  0
   -0.8642   26.8612   21.7206 H   0  0  0  0  0  0  0  0  0  0  0  0
    0.3555   25.1115   20.5586 H   0  0  0  0  0  0  0  0  0  0  0  0
    1.5966   29.8253   19.8266 H   0  0  0  0  0  0  0  0  0  0  0  0
    3.7633   27.3672   18.2553 H   0  0  0  0  0  0  0  0  0  0  0  0
    3.9628   30.8989   14.9897 H   0  0  0  0  0  0  0  0  0  0  0  0
    1.9767   32.1442   14.0401 H   0  0  0  0  0  0  0  0  0  0  0  0
   -1.5701   34.3436   15.1349 H   0  0  0  0  0  0  0  0  0  0  0  0
   -1.5600   33.2143   17.3404 H   0  0  0  0  0  0  0  0  0  0  0  0
    0.1861   31.6100   17.9171 H   0  0  0  0  0  0  0  0  0  0  0  0
   -0.1340   35.9935   13.7817 H   0  0  0  0  0  0  0  0  0  0  0  0
    0.3801   35.7514    9.6838 H   0  0  0  0  0  0  0  0  0  0  0  0
    0.7607   33.2683    9.8237 H   0  0  0  0  0  0  0  0  0  0  0  0
    0.6101   32.1185   11.9897 H   0  0  0  0  0  0  0  0  0  0  0  0
    3.1585   23.6410   18.4967 H   0  0  0  0  0  0  0  0  0  0  0  0
    1.6474   23.6463   19.4213 H   0  0  0  0  0  0  0  0  0  0  0  0
    3.1806   24.1951   20.1839 H   0  0  0  0  0  0  0  0  0  0  0  0
  1  2  2  0
  2  3  2  0
  2  4  1  0
  2  9  1  0
  4  5  1  0
  4 35  1  0
  5  6  1  0
  5 36  1  0
  5 37  1  0
  6  7  1  0
  6  8  1  0
  6 38  1  0
  7  8  1  0
  7 39  1  0
  7 40  1  0
  8 41  1  0
  8 42  1  0
  9 10  2  0
  9 12  1  0
 10 11  1  0
 10 43  1  0
 11 14  2  0
 11 44  1  0
 12 13  2  0
 12 45  1  0
 13 14  1  0
 13 17  1  0
 14 15  1  0
 15 16  1  0
 16 56  1  0
 16 57  1  0
 16 58  1  0
 17 18  1  0
 17 46  1  0
 18 19  1  0
 18 22  2  0
 19 20  1  0
 20 21  2  0
 20 23  1  0
 21 22  1  0
 21 47  1  0
 23 24  2  0
 23 28  1  0
 24 25  1  0
 24 48  1  0
 25 26  2  0
 25 29  1  0
 26 27  1  0
 26 49  1  0
 27 28  2  0
 27 50  1  0
 28 51  1  0
 29 30  2  0
 29 34  1  0
 30 31  1  0
 30 52  1  0
 31 32  2  0
 32 33  1  0
 32 53  1  0
 33 34  2  0
 33 54  1  0
 34 55  1  0
M  END
>  <HEADER>  (2) 
    TRANSFERASE                             05-DEC-04   1Y6B              

>  <TITLE>  (2) 
    CRYSTAL STRUCTURE OF VEGFR2 IN COMPLEX WITH A 2-ANILINO-5-ARYL-OXAZOLE
   2 INHIBITOR                                                            

>  <COMPND>  (2) 
    MOL_ID: 1;                                                            
   2 MOLECULE: VASCULAR ENDOTHELIAL GROWTH FACTOR RECEPTOR 2;             
   3 CHAIN: A;                                                            
   4 SYNONYM: VEGFR-2, KINASE INSERT DOMAIN RECEPTOR, PROTEIN-TYROSINE    
   5 KINASE RECEPTOR FLK-1;                                               
   6 EC: 2.7.1.112;                                                       
   7 ENGINEERED: YES                                                      

>  <SOURCE>  (2) 
    MOL_ID: 1;                                                            
   2 ORGANISM_SCIENTIFIC: HOMO SAPIENS;                                   
   3 ORGANISM_COMMON: HUMAN;                                              
   4 ORGANISM_TAXID: 9606;                                                
   5 GENE: KDR, FLK1;                                                     
   6 EXPRESSION_SYSTEM: ESCHERICHIA COLI;                                 
   7 EXPRESSION_SYSTEM_TAXID: 562                                         

>  <KEYWDS>  (2) 
    TRANSFERASE                                                           

>  <EXPDTA>  (2) 
    X-RAY DIFFRACTION                                                     

>  <AUTHOR>  (2) 
    P.A.HARRIS,M.CHEUNG,R.N.HUNTER,M.L.BROWN,J.M.VEAL,R.T.NOLTE,L.WANG,   
   2 W.LIU,R.M.CROSBY,J.H.JOHNSON,A.H.EPPERLY,R.KUMAR,D.K.LUTTRELL,       
   3 J.A.STAFFORD                                                         

>  <REVDAT>  (2) 
   4   11-OCT-17 1Y6B    1       REMARK                                   
   3   13-JUL-11 1Y6B    1       VERSN                                    
   2   24-FEB-09 1Y6B    1       VERSN                                    
   1   07-JUN-05 1Y6B    0                                                

>  <JRNL>  (2) 
      AUTH   P.A.HARRIS,M.CHEUNG,R.N.HUNTER,M.L.BROWN,J.M.VEAL,R.T.NOLTE, 
      AUTH 2 L.WANG,W.LIU,R.M.CROSBY,J.H.JOHNSON,A.H.EPPERLY,R.KUMAR,     
      AUTH 3 D.K.LUTTRELL,J.A.STAFFORD                                    
      TITL   DISCOVERY AND EVALUATION OF 2-ANILINO-5-ARYLOXAZOLES AS A    
      TITL 2 NOVEL CLASS OF VEGFR2 KINASE INHIBITORS.                     
      REF    J.MED.CHEM.                   V.  48  1610 2005              
      REFN                   ISSN 0022-2623                               
      PMID   15743202                                                     
      DOI    10.1021/JM049538W                                            

>  <REMARK>  (2) 
   2                                                                      
   2 RESOLUTION.    2.10 ANGSTROMS.                                       
   3                                                                      
   3 REFINEMENT.                                                          
   3   PROGRAM     : REFMAC 5.2.0005                                      
   3   AUTHORS     : MURSHUDOV,VAGIN,DODSON                               
   3                                                                      
   3    REFINEMENT TARGET : MAXIMUM LIKELIHOOD                            
   3                                                                      
   3  DATA USED IN REFINEMENT.                                            
   3   RESOLUTION RANGE HIGH (ANGSTROMS) : 2.10                           
   3   RESOLUTION RANGE LOW  (ANGSTROMS) : 16.60                          
   3   DATA CUTOFF            (SIGMA(F)) : NULL                           
   3   COMPLETENESS FOR RANGE        (%) : 99.7                           
   3   NUMBER OF REFLECTIONS             : 19994                          
   3                                                                      
   3  FIT TO DATA USED IN REFINEMENT.                                     
   3   CROSS-VALIDATION METHOD          : THROUGHOUT                      
   3   FREE R VALUE TEST SET SELECTION  : RANDOM                          
   3   R VALUE     (WORKING + TEST SET) : 0.194                           
   3   R VALUE            (WORKING SET) : 0.192                           
   3   FREE R VALUE                     : 0.236                           
   3   FREE R VALUE TEST SET SIZE   (%) : 3.300                           
   3   FREE R VALUE TEST SET COUNT      : 675                             
   3                                                                      
   3  FIT IN THE HIGHEST RESOLUTION BIN.                                  
   3   TOTAL NUMBER OF BINS USED           : 20                           
   3   BIN RESOLUTION RANGE HIGH       (A) : 2.10                         
   3   BIN RESOLUTION RANGE LOW        (A) : 2.15                         
   3   REFLECTION IN BIN     (WORKING SET) : 1429                         
   3   BIN COMPLETENESS (WORKING+TEST) (%) : 98.86                        
   3   BIN R VALUE           (WORKING SET) : 0.2170                       
   3   BIN FREE R VALUE SET COUNT          : 39                           
   3   BIN FREE R VALUE                    : 0.3380                       
   3                                                                      
   3  NUMBER OF NON-HYDROGEN ATOMS USED IN REFINEMENT.                    
   3   PROTEIN ATOMS            : 2135                                    
   3   NUCLEIC ACID ATOMS       : 0                                       
   3   HETEROGEN ATOMS          : 34                                      
   3   SOLVENT ATOMS            : 151                                     
   3                                                                      
   3  B VALUES.                                                           
   3   B VALUE TYPE : LIKELY RESIDUAL                                     
   3   FROM WILSON PLOT           (A**2) : 36.00                          
   3   MEAN B VALUE      (OVERALL, A**2) : 35.60                          
   3   OVERALL ANISOTROPIC B VALUE.                                       
   3    B11 (A**2) : 1.65000                                              
   3    B22 (A**2) : -0.02000                                             
   3    B33 (A**2) : -1.63000                                             
   3    B12 (A**2) : 0.00000                                              
   3    B13 (A**2) : 0.00000                                              
   3    B23 (A**2) : 0.00000                                              
   3                                                                      
   3  ESTIMATED OVERALL COORDINATE ERROR.                                 
   3   ESU BASED ON R VALUE                            (A): 0.190         
   3   ESU BASED ON FREE R VALUE                       (A): 0.171         
   3   ESU BASED ON MAXIMUM LIKELIHOOD                 (A): 0.124         
   3   ESU FOR B VALUES BASED ON MAXIMUM LIKELIHOOD (A**2): 8.890         
   3                                                                      
   3 CORRELATION COEFFICIENTS.                                            
   3   CORRELATION COEFFICIENT FO-FC      : 0.955                         
   3   CORRELATION COEFFICIENT FO-FC FREE : 0.935                         
   3                                                                      
   3  RMS DEVIATIONS FROM IDEAL VALUES        COUNT    RMS    WEIGHT      
   3   BOND LENGTHS REFINED ATOMS        (A):  2224 ; 0.016 ; 0.022       
   3   BOND LENGTHS OTHERS               (A):  2048 ; 0.002 ; 0.020       
   3   BOND ANGLES REFINED ATOMS   (DEGREES):  3003 ; 1.539 ; 1.982       
   3   BOND ANGLES OTHERS          (DEGREES):  4751 ; 0.981 ; 3.000       
   3   TORSION ANGLES, PERIOD 1    (DEGREES):   261 ; 6.620 ; 5.000       
   3   TORSION ANGLES, PERIOD 2    (DEGREES):    96 ;32.100 ;22.708       
   3   TORSION ANGLES, PERIOD 3    (DEGREES):   388 ;15.055 ;15.000       
   3   TORSION ANGLES, PERIOD 4    (DEGREES):    17 ;23.264 ;15.000       
   3   CHIRAL-CENTER RESTRAINTS       (A**3):   326 ; 0.096 ; 0.200       
   3   GENERAL PLANES REFINED ATOMS      (A):  2398 ; 0.007 ; 0.020       
   3   GENERAL PLANES OTHERS             (A):   475 ; 0.007 ; 0.020       
   3   NON-BONDED CONTACTS REFINED ATOMS (A):   427 ; 0.216 ; 0.200       
   3   NON-BONDED CONTACTS OTHERS        (A):  1935 ; 0.184 ; 0.200       
   3   NON-BONDED TORSION REFINED ATOMS  (A):  1045 ; 0.183 ; 0.200       
   3   NON-BONDED TORSION OTHERS         (A):  1195 ; 0.084 ; 0.200       
   3   H-BOND (X...Y) REFINED ATOMS      (A):   114 ; 0.192 ; 0.200       
   3   H-BOND (X...Y) OTHERS             (A):  NULL ;  NULL ;  NULL       
   3   POTENTIAL METAL-ION REFINED ATOMS (A):  NULL ;  NULL ;  NULL       
   3   POTENTIAL METAL-ION OTHERS        (A):  NULL ;  NULL ;  NULL       
   3   SYMMETRY VDW REFINED ATOMS        (A):     3 ; 0.037 ; 0.200       
   3   SYMMETRY VDW OTHERS               (A):    30 ; 0.161 ; 0.200       
   3   SYMMETRY H-BOND REFINED ATOMS     (A):     1 ; 0.499 ; 0.200       
   3   SYMMETRY H-BOND OTHERS            (A):  NULL ;  NULL ;  NULL       
   3   SYMMETRY METAL-ION REFINED ATOMS  (A):  NULL ;  NULL ;  NULL       
   3   SYMMETRY METAL-ION OTHERS         (A):  NULL ;  NULL ;  NULL       
   3                                                                      
   3  ISOTROPIC THERMAL FACTOR RESTRAINTS.     COUNT   RMS    WEIGHT      
   3   MAIN-CHAIN BOND REFINED ATOMS  (A**2):  1709 ; 1.362 ; 1.500       
   3   MAIN-CHAIN BOND OTHER ATOMS    (A**2):   537 ; 0.226 ; 1.500       
   3   MAIN-CHAIN ANGLE REFINED ATOMS (A**2):  2132 ; 1.545 ; 2.000       
   3   MAIN-CHAIN ANGLE OTHER ATOMS   (A**2):  NULL ;  NULL ;  NULL       
   3   SIDE-CHAIN BOND REFINED ATOMS  (A**2):  1071 ; 2.256 ; 3.000       
   3   SIDE-CHAIN BOND OTHER ATOMS    (A**2):  NULL ;  NULL ;  NULL       
   3   SIDE-CHAIN ANGLE REFINED ATOMS (A**2):   868 ; 3.213 ; 4.500       
   3   SIDE-CHAIN ANGLE OTHER ATOMS   (A**2):  NULL ;  NULL ;  NULL       
   3   LONG RANGE B REFINED ATOMS     (A**2):  NULL ;  NULL ;  NULL       
   3   LONG RANGE B OTHER ATOMS       (A**2):  NULL ;  NULL ;  NULL       
   3                                                                      
   3 ANISOTROPIC THERMAL FACTOR RESTRAINTS.    COUNT   RMS   WEIGHT       
   3   RIGID-BOND RESTRAINTS          (A**2):  NULL ;  NULL ;  NULL       
   3   SPHERICITY; FREE ATOMS         (A**2):  NULL ;  NULL ;  NULL       
   3   SPHERICITY; BONDED ATOMS       (A**2):  NULL ;  NULL ;  NULL       
   3                                                                      
   3  NCS RESTRAINTS STATISTICS                                           
   3   NUMBER OF DIFFERENT NCS GROUPS : NULL                              
   3                                                                      
   3  TLS DETAILS                                                         
   3   NUMBER OF TLS GROUPS  : 2                                          
   3                                                                      
   3   TLS GROUP : 1                                                      
   3    NUMBER OF COMPONENTS GROUP : 1                                    
   3    COMPONENTS        C SSSEQI   TO  C SSSEQI                         
   3    RESIDUE RANGE :   A   817        A   920                          
   3    ORIGIN FOR THE GROUP (A):   2.1180  34.2230   6.1800              
   3    T TENSOR                                                          
   3      T11:  -0.0728 T22:  -0.0119                                     
   3      T33:  -0.0658 T12:   0.0054                                     
   3      T13:   0.0011 T23:  -0.0100                                     
   3    L TENSOR                                                          
   3      L11:   1.6141 L22:   2.1684                                     
   3      L33:   2.8238 L12:   0.2375                                     
   3      L13:   0.0516 L23:   0.6725                                     
   3    S TENSOR                                                          
   3      S11:   0.0003 S12:   0.0706 S13:   0.0597                       
   3      S21:  -0.0606 S22:  -0.0193 S23:   0.1841                       
   3      S31:  -0.1453 S32:  -0.0900 S33:   0.0190                       
   3                                                                      
   3   TLS GROUP : 2                                                      
   3    NUMBER OF COMPONENTS GROUP : 1                                    
   3    COMPONENTS        C SSSEQI   TO  C SSSEQI                         
   3    RESIDUE RANGE :   A   921        A  1166                          
   3    ORIGIN FOR THE GROUP (A):   7.6840  41.4310  32.3890              
   3    T TENSOR                                                          
   3      T11:  -0.0008 T22:  -0.0514                                     
   3      T33:  -0.1174 T12:   0.0099                                     
   3      T13:  -0.0039 T23:  -0.0331                                     
   3    L TENSOR                                                          
   3      L11:   0.9418 L22:   2.5442                                     
   3      L33:   3.0375 L12:   0.5907                                     
   3      L13:   0.3750 L23:   2.0136                                     
   3    S TENSOR                                                          
   3      S11:  -0.0587 S12:  -0.0163 S13:   0.0285                       
   3      S21:   0.2259 S22:  -0.0183 S23:   0.0624                       
   3      S31:   0.0971 S32:  -0.0458 S33:   0.0770                       
   3                                                                      
   3  BULK SOLVENT MODELLING.                                             
   3   METHOD USED : MASK                                                 
   3   PARAMETERS FOR MASK CALCULATION                                    
   3   VDW PROBE RADIUS   : 1.20                                          
   3   ION PROBE RADIUS   : 0.80                                          
   3   SHRINKAGE RADIUS   : 0.80                                          
   3                                                                      
   3  OTHER REFINEMENT REMARKS: HYDROGENS HAVE BEEN ADDED IN THE RIDING   
   3  POSITIONS                                                           
   4                                                                      
   4 1Y6B COMPLIES WITH FORMAT V. 3.30, 13-JUL-11                         
 100                                                                      
 100 THIS ENTRY HAS BEEN PROCESSED BY RCSB ON 09-DEC-04.                  
 100 THE DEPOSITION ID IS D_1000031170.                                   
 200                                                                      
 200 EXPERIMENTAL DETAILS                                                 
 200  EXPERIMENT TYPE                : X-RAY DIFFRACTION                  
 200  DATE OF DATA COLLECTION        : NULL                               
 200  TEMPERATURE           (KELVIN) : NULL                               
 200  PH                             : NULL                               
 200  NUMBER OF CRYSTALS USED        : 1                                  
 200                                                                      
 200  SYNCHROTRON              (Y/N) : Y                                  
 200  RADIATION SOURCE               : APS                                
 200  BEAMLINE                       : 17-ID                              
 200  X-RAY GENERATOR MODEL          : NULL                               
 200  MONOCHROMATIC OR LAUE    (M/L) : M                                  
 200  WAVELENGTH OR RANGE        (A) : 1.0                                
 200  MONOCHROMATOR                  : NULL                               
 200  OPTICS                         : NULL                               
 200                                                                      
 200  DETECTOR TYPE                  : NULL                               
 200  DETECTOR MANUFACTURER          : NULL                               
 200  INTENSITY-INTEGRATION SOFTWARE : MAR                                
 200  DATA SCALING SOFTWARE          : SCALEPACK                          
 200                                                                      
 200  NUMBER OF UNIQUE REFLECTIONS   : 20768                              
 200  RESOLUTION RANGE HIGH      (A) : 2.100                              
 200  RESOLUTION RANGE LOW       (A) : 20.000                             
 200  REJECTION CRITERIA  (SIGMA(I)) : -3.000                             
 200                                                                      
 200 OVERALL.                                                             
 200  COMPLETENESS FOR RANGE     (%) : 99.5                               
 200  DATA REDUNDANCY                : 6.790                              
 200  R MERGE                    (I) : 0.04500                            
 200  R SYM                      (I) : NULL                               
 200  <I/SIGMA(I)> FOR THE DATA SET  : 42.9000                            
 200                                                                      
 200 IN THE HIGHEST RESOLUTION SHELL.                                     
 200  HIGHEST RESOLUTION SHELL, RANGE HIGH (A) : 2.10                     
 200  HIGHEST RESOLUTION SHELL, RANGE LOW  (A) : 2.17                     
 200  COMPLETENESS FOR SHELL     (%) : 99.1                               
 200  DATA REDUNDANCY IN SHELL       : NULL                               
 200  R MERGE FOR SHELL          (I) : 0.35500                            
 200  R SYM FOR SHELL            (I) : NULL                               
 200  <I/SIGMA(I)> FOR SHELL         : 5.460                              
 200                                                                      
 200 DIFFRACTION PROTOCOL: SINGLE WAVELENGTH                              
 200 METHOD USED TO DETERMINE THE STRUCTURE: MOLECULAR REPLACEMENT        
 200 SOFTWARE USED: AMORE                                                 
 200 STARTING MODEL: NULL                                                 
 200                                                                      
 200 REMARK: NULL                                                         
 280                                                                      
 280 CRYSTAL                                                              
 280 SOLVENT CONTENT, VS   (%): 40.17                                     
 280 MATTHEWS COEFFICIENT, VM (ANGSTROMS**3/DA): 2.06                     
 280                                                                      
 280 CRYSTALLIZATION CONDITIONS: NULL                                     
 290                                                                      
 290 CRYSTALLOGRAPHIC SYMMETRY                                            
 290 SYMMETRY OPERATORS FOR SPACE GROUP: P 21 21 21                       
 290                                                                      
 290      SYMOP   SYMMETRY                                                
 290     NNNMMM   OPERATOR                                                
 290       1555   X,Y,Z                                                   
 290       2555   -X+1/2,-Y,Z+1/2                                         
 290       3555   -X,Y+1/2,-Z+1/2                                         
 290       4555   X+1/2,-Y+1/2,-Z                                         
 290                                                                      
 290     WHERE NNN -> OPERATOR NUMBER                                     
 290           MMM -> TRANSLATION VECTOR                                  
 290                                                                      
 290 CRYSTALLOGRAPHIC SYMMETRY TRANSFORMATIONS                            
 290 THE FOLLOWING TRANSFORMATIONS OPERATE ON THE ATOM/HETATM             
 290 RECORDS IN THIS ENTRY TO PRODUCE CRYSTALLOGRAPHICALLY                
 290 RELATED MOLECULES.                                                   
 290   SMTRY1   1  1.000000  0.000000  0.000000        0.00000            
 290   SMTRY2   1  0.000000  1.000000  0.000000        0.00000            
 290   SMTRY3   1  0.000000  0.000000  1.000000        0.00000            
 290   SMTRY1   2 -1.000000  0.000000  0.000000       18.77200            
 290   SMTRY2   2  0.000000 -1.000000  0.000000        0.00000            
 290   SMTRY3   2  0.000000  0.000000  1.000000       48.38350            
 290   SMTRY1   3 -1.000000  0.000000  0.000000        0.00000            
 290   SMTRY2   3  0.000000  1.000000  0.000000       47.16650            
 290   SMTRY3   3  0.000000  0.000000 -1.000000       48.38350            
 290   SMTRY1   4  1.000000  0.000000  0.000000       18.77200            
 290   SMTRY2   4  0.000000 -1.000000  0.000000       47.16650            
 290   SMTRY3   4  0.000000  0.000000 -1.000000        0.00000            
 290                                                                      
 290 REMARK: NULL                                                         
 300                                                                      
 300 BIOMOLECULE: 1                                                       
 300 SEE REMARK 350 FOR THE AUTHOR PROVIDED AND/OR PROGRAM                
 300 GENERATED ASSEMBLY INFORMATION FOR THE STRUCTURE IN                  
 300 THIS ENTRY. THE REMARK MAY ALSO PROVIDE INFORMATION ON               
 300 BURIED SURFACE AREA.                                                 
 350                                                                      
 350 COORDINATES FOR A COMPLETE MULTIMER REPRESENTING THE KNOWN           
 350 BIOLOGICALLY SIGNIFICANT OLIGOMERIZATION STATE OF THE                
 350 MOLECULE CAN BE GENERATED BY APPLYING BIOMT TRANSFORMATIONS          
 350 GIVEN BELOW.  BOTH NON-CRYSTALLOGRAPHIC AND                          
 350 CRYSTALLOGRAPHIC OPERATIONS ARE GIVEN.                               
 350                                                                      
 350 BIOMOLECULE: 1                                                       
 350 AUTHOR DETERMINED BIOLOGICAL UNIT: MONOMERIC                         
 350 APPLY THE FOLLOWING TO CHAINS: A                                     
 350   BIOMT1   1  1.000000  0.000000  0.000000        0.00000            
 350   BIOMT2   1  0.000000  1.000000  0.000000        0.00000            
 350   BIOMT3   1  0.000000  0.000000  1.000000        0.00000            
 465                                                                      
 465 MISSING RESIDUES                                                     
 465 THE FOLLOWING RESIDUES WERE NOT LOCATED IN THE                       
 465 EXPERIMENT. (M=MODEL NUMBER; RES=RESIDUE NAME; C=CHAIN               
 465 IDENTIFIER; SSSEQ=SEQUENCE NUMBER; I=INSERTION CODE.)                
 465                                                                      
 465   M RES C SSSEQI                                                     
 465     MET A   804                                                      
 465     ASP A   805                                                      
 465     PRO A   806                                                      
 465     ASP A   807                                                      
 465     GLU A   808                                                      
 465     LEU A   809                                                      
 465     PRO A   810                                                      
 465     LEU A   811                                                      
 465     ASP A   812                                                      
 465     GLU A   813                                                      
 465     HIS A   814                                                      
 465     CYS A   815                                                      
 465     GLU A   816                                                      
 465     ALA A   842                                                      
 465     PHE A   843                                                      
 465     GLU A   870                                                      
 465     GLY A   871                                                      
 465     LYS A   937                                                      
 465     THR A   938                                                      
 465     LYS A   939                                                      
 465     GLY A   940                                                      
 465     ALA A   941                                                      
 465     ARG A   942                                                      
 465     PHE A   943                                                      
 465     ARG A   944                                                      
 465     GLN A   945                                                      
 465     GLY A   946                                                      
 465     LYS A   947                                                      
 465     ASP A   948                                                      
 465     TYR A   949                                                      
 465     VAL A   950                                                      
 465     GLY A   951                                                      
 465     ALA A   952                                                      
 465     ILE A   953                                                      
 465     PRO A   954                                                      
 465     VAL A   955                                                      
 465     ASP A   956                                                      
 465     LEU A   957                                                      
 465     LYS A   958                                                      
 465     ARG A   959                                                      
 465     ARG A   960                                                      
 465     LEU A   961                                                      
 465     ASP A   962                                                      
 465     SER A   963                                                      
 465     ILE A   964                                                      
 465     THR A   965                                                      
 465     SER A   966                                                      
 465     SER A   967                                                      
 465     GLN A   968                                                      
 465     SER A   969                                                      
 465     SER A   970                                                      
 465     ALA A   971                                                      
 465     SER A   972                                                      
 465     SER A   973                                                      
 465     GLY A   974                                                      
 465     PHE A   975                                                      
 465     VAL A   976                                                      
 465     GLU A   977                                                      
 465     GLU A   978                                                      
 465     LYS A   979                                                      
 465     SER A   980                                                      
 465     LEU A   981                                                      
 465     SER A   982                                                      
 465     ASP A   983                                                      
 465     VAL A   984                                                      
 465     GLU A   985                                                      
 465     GLU A   986                                                      
 465     GLU A   987                                                      
 465     GLU A   988                                                      
 465     ALA A   989                                                      
 465     PRO A   990                                                      
 465     GLU A   991                                                      
 465     ASP A   992                                                      
 465     LEU A   993                                                      
 465     TYR A   994                                                      
 465     LYS A   995                                                      
 465     ASP A   996                                                      
 465     GLY A  1046                                                      
 465     LEU A  1047                                                      
 465     ALA A  1048                                                      
 465     ARG A  1049                                                      
 465     ASP A  1050                                                      
 465     ILE A  1051                                                      
 465     TYR A  1052                                                      
 465     LYS A  1053                                                      
 465     ASP A  1054                                                      
 465     PRO A  1055                                                      
 465     ASP A  1056                                                      
 465     TYR A  1057                                                      
 465     VAL A  1058                                                      
 465     ARG A  1059                                                      
 465     LYS A  1060                                                      
 465     GLY A  1061                                                      
 465     ASP A  1062                                                      
 465     ALA A  1063                                                      
 465     ARG A  1064                                                      
 465     LEU A  1065                                                      
 465     GLN A  1167                                                      
 465     GLN A  1168                                                      
 465     ASP A  1169                                                      
 500                                                                      
 500 GEOMETRY AND STEREOCHEMISTRY                                         
 500 SUBTOPIC: TORSION ANGLES                                             
 500                                                                      
 500 TORSION ANGLES OUTSIDE THE EXPECTED RAMACHANDRAN REGIONS:            
 500 (M=MODEL NUMBER; RES=RESIDUE NAME; C=CHAIN IDENTIFIER;               
 500 SSEQ=SEQUENCE NUMBER; I=INSERTION CODE).                             
 500                                                                      
 500 STANDARD TABLE:                                                      
 500 FORMAT:(10X,I3,1X,A3,1X,A1,I4,A1,4X,F7.2,3X,F7.2)                    
 500                                                                      
 500 EXPECTED VALUES: GJ KLEYWEGT AND TA JONES (1996). PHI/PSI-           
 500 CHOLOGY: RAMACHANDRAN REVISITED. STRUCTURE 4, 1395 - 1400            
 500                                                                      
 500  M RES CSSEQI        PSI       PHI                                   
 500    LYS A 856      -12.94     75.92                                   
 500    ALA A 858       48.83    -77.44                                   
 500    ARG A1025      -12.31     87.46                                   
 500    ASP A1026       56.20   -142.60                                   
 500    SER A1035     -165.52   -114.28                                   
 500    ASN A1038       29.33     49.59                                   
 500    ARG A1078       -0.45     64.77                                   
 500                                                                      
 500 REMARK: NULL                                                         
 800                                                                      
 800 SITE                                                                 
 800 SITE_IDENTIFIER: AC1                                                 
 800 EVIDENCE_CODE: SOFTWARE                                              
 800 SITE_DESCRIPTION: BINDING SITE FOR RESIDUE AAX A 201                 
 900                                                                      
 900 RELATED ENTRIES                                                      
 900 RELATED ID: 1VR2   RELATED DB: PDB                                   
 900 UNLIGANDED STRUCTURE                                                 
 900 RELATED ID: 1Y6A   RELATED DB: PDB                                   
 900 CRYSTAL STRUCTURE OF VEGFR2 IN COMPLEX WITH A 2-ANILINO-5-ARYL-      
 900 OXAZOLE INHIBITOR                                                    

>  <DBREF>  (2) 
 1Y6B A  804  1169  UNP    P35968   VGFR2_HUMAN    806   1171             

>  <SEQRES>  (2) 
   1 A  366  MET ASP PRO ASP GLU LEU PRO LEU ASP GLU HIS CYS GLU          
   2 A  366  ARG LEU PRO TYR ASP ALA SER LYS TRP GLU PHE PRO ARG          
   3 A  366  ASP ARG LEU LYS LEU GLY LYS PRO LEU GLY ARG GLY ALA          
   4 A  366  PHE GLY GLN VAL ILE GLU ALA ASP ALA PHE GLY ILE ASP          
   5 A  366  LYS THR ALA THR CYS ARG THR VAL ALA VAL LYS MET LEU          
   6 A  366  LYS GLU GLY ALA THR HIS SER GLU HIS ARG ALA LEU MET          
   7 A  366  SER GLU LEU LYS ILE LEU ILE HIS ILE GLY HIS HIS LEU          
   8 A  366  ASN VAL VAL ASN LEU LEU GLY ALA CYS THR LYS PRO GLY          
   9 A  366  GLY PRO LEU MET VAL ILE VAL GLU PHE CYS LYS PHE GLY          
  10 A  366  ASN LEU SER THR TYR LEU ARG SER LYS ARG ASN GLU PHE          
  11 A  366  VAL PRO TYR LYS THR LYS GLY ALA ARG PHE ARG GLN GLY          
  12 A  366  LYS ASP TYR VAL GLY ALA ILE PRO VAL ASP LEU LYS ARG          
  13 A  366  ARG LEU ASP SER ILE THR SER SER GLN SER SER ALA SER          
  14 A  366  SER GLY PHE VAL GLU GLU LYS SER LEU SER ASP VAL GLU          
  15 A  366  GLU GLU GLU ALA PRO GLU ASP LEU TYR LYS ASP PHE LEU          
  16 A  366  THR LEU GLU HIS LEU ILE CYS TYR SER PHE GLN VAL ALA          
  17 A  366  LYS GLY MET GLU PHE LEU ALA SER ARG LYS CYS ILE HIS          
  18 A  366  ARG ASP LEU ALA ALA ARG ASN ILE LEU LEU SER GLU LYS          
  19 A  366  ASN VAL VAL LYS ILE CYS ASP PHE GLY LEU ALA ARG ASP          
  20 A  366  ILE TYR LYS ASP PRO ASP TYR VAL ARG LYS GLY ASP ALA          
  21 A  366  ARG LEU PRO LEU LYS TRP MET ALA PRO GLU THR ILE PHE          
  22 A  366  ASP ARG VAL TYR THR ILE GLN SER ASP VAL TRP SER PHE          
  23 A  366  GLY VAL LEU LEU TRP GLU ILE PHE SER LEU GLY ALA SER          
  24 A  366  PRO TYR PRO GLY VAL LYS ILE ASP GLU GLU PHE CYS ARG          
  25 A  366  ARG LEU LYS GLU GLY THR ARG MET ARG ALA PRO ASP TYR          
  26 A  366  THR THR PRO GLU MET TYR GLN THR MET LEU ASP CYS TRP          
  27 A  366  HIS GLY GLU PRO SER GLN ARG PRO THR PHE SER GLU LEU          
  28 A  366  VAL GLU HIS LEU GLY ASN LEU LEU GLN ALA ASN ALA GLN          
  29 A  366  GLN ASP                                                      

>  <HET>  (2) 
 AAX  A 201      34                                                       

>  <HETNAM>  (2) 
     AAX N-(CYCLOPROPYLMETHYL)-4-(METHYLOXY)-3-({5-[3-(3-                 
   2 AAX  PYRIDINYL)PHENYL]-1,3-OXAZOL-2-YL}AMINO)                        
   3 AAX  BENZENESULFONAMIDE                                              

>  <FORMUL>  (2) 
   2  AAX    C25 H24 N4 O4 S                                              
   3  HOH   *151(H2 O)                                                    

>  <HELIX>  (2) 
   1   1 ASP A  821  GLU A  826  1                                   6
   2   2 PRO A  828  ASP A  830  1                                   3
   3   3 THR A  873  GLY A  891  1                                  19
   4   4 ASN A  921  LYS A  929  1                                   9
   5   5 THR A  999  ARG A 1020  1                                  22
   6   6 ALA A 1028  ARG A 1030  1                                   3
   7   7 PRO A 1066  ARG A 1078  1                                  13
   8   8 THR A 1081  SER A 1098  1                                  18
   9   9 ASP A 1110  GLY A 1120  1                                  11
  10  10 THR A 1130  TRP A 1141  1                                  12
  11  11 GLU A 1144  ARG A 1148  1                                   5
  12  12 THR A 1150  ALA A 1166  1                                  17

>  <SHEET>  (2) 
   1   1 1 LEU A 832  GLY A 839  0
   2   2 1 GLN A 845  PHE A 852  0
   3   3 1 CYS A 860  MET A 867  0
   4   4 1 LEU A 899  CYS A 903  0
   5   5 1 MET A 911  GLU A 915  0
   6   6 1 ILE A1032  LEU A1034  0
   7   7 1 VAL A1040  ILE A1042  0

>  <SITE>  (2) 
   1 AC1 16 HOH A  75  HOH A 128  LEU A 838  ALA A 864                    
   2 AC1 16 LYS A 866  GLU A 883  VAL A 912  VAL A 914                    
   3 AC1 16 GLU A 915  PHE A 916  CYS A 917  LYS A 918                    
   4 AC1 16 GLY A 920  ASN A 921  LEU A1033  PHE A1045                    

>  <ORIGX1>  (2) 
      1.000000  0.000000  0.000000        0.00000                         

>  <ORIGX2>  (2) 
      0.000000  1.000000  0.000000        0.00000                         

>  <ORIGX3>  (2) 
      0.000000  0.000000  1.000000        0.00000                         

>  <SCALE1>  (2) 
      0.026635  0.000000  0.000000        0.00000                         

>  <SCALE2>  (2) 
      0.000000  0.010601  0.000000        0.00000                         

>  <SCALE3>  (2) 
      0.000000  0.000000  0.010334        0.00000                         

>  <MolID>  (2) 
0

>  <ConfID>  (2) 
2

>  <Score>  (2) 
-9.57

>  <VDW>  (2) 
-48.04

>  <Hbond>  (2) 
-2.03

>  <Electrop>  (2) 
-3.32

$$$$
AAX
     RDKit          3D

 58 62  0  0  0  0  0  0  0  0999 V2000
    0.6007   30.7102   21.4787 O   0  0  0  0  0  0  0  0  0  0  0  0
   -0.0715   29.4972   21.7388 S   0  0  0  0  0  0  0  0  0  0  0  0
    0.1369   29.0819   23.0888 O   0  0  0  0  0  0  0  0  0  0  0  0
   -1.5907   29.7492   21.3370 N   0  0  0  0  0  0  0  0  0  0  0  0
   -2.5992   28.9039   21.9764 C   0  0  0  0  0  0  0  0  0  0  0  0
   -3.2245   27.8913   21.0179 C   0  0  0  0  0  0  0  0  0  0  0  0
   -4.5106   27.2426   21.5279 C   0  0  0  0  0  0  0  0  0  0  0  0
   -3.2218   26.4347   21.4523 C   0  0  0  0  0  0  0  0  0  0  0  0
    0.5958   28.2922   20.8354 C   0  0  0  0  0  0  0  0  0  0  0  0
    0.3050   26.9757   21.1707 C   0  0  0  0  0  0  0  0  0  0  0  0
    0.8817   25.9166   20.4684 C   0  0  0  0  0  0  0  0  0  0  0  0
    1.4801   28.5075   19.7504 C   0  0  0  0  0  0  0  0  0  0  0  0
    2.0516   27.4507   19.0044 C   0  0  0  0  0  0  0  0  0  0  0  0
    1.7401   26.1525   19.3772 C   0  0  0  0  0  0  0  0  0  0  0  0
    2.2973   25.1358   18.6478 O   0  0  0  0  0  0  0  0  0  0  0  0
    2.6188   23.8373   19.1715 C   0  0  0  0  0  0  0  0  0  0  0  0
    2.8456   27.6337   17.8683 N   0  0  0  0  0  0  0  0  0  0  0  0
    2.8499   28.7545   17.1022 C   0  0  0  0  0  0  0  0  0  0  0  0
    1.7841   29.5750   17.0576 O   0  0  0  0  0  0  0  0  0  0  0  0
    2.2022   30.6300   16.3158 C   0  0  0  0  0  0  0  0  0  0  0  0
    3.4953   30.3811   15.8576 C   0  0  0  0  0  0  0  0  0  0  0  0
    3.9231   29.1943   16.3756 N   0  0  0  0  0  0  0  0  0  0  0  0
    1.2341   31.6844   16.0251 C   0  0  0  0  0  0  0  0  0  0  0  0
    1.1938   32.2924   14.7707 C   0  0  0  0  0  0  0  0  0  0  0  0
    0.2254   33.2588   14.4971 C   0  0  0  0  0  0  0  0  0  0  0  0
   -0.7529   33.5727   15.4631 C   0  0  0  0  0  0  0  0  0  0  0  0
   -0.7402   32.8943   16.6782 C   0  0  0  0  0  0  0  0  0  0  0  0
    0.2316   31.9570   16.9629 C   0  0  0  0  0  0  0  0  0  0  0  0
    0.2355   33.9353   13.1623 C   0  0  0  0  0  0  0  0  0  0  0  0
    0.0427   35.3222   13.0465 C   0  0  0  0  0  0  0  0  0  0  0  0
    0.0825   35.9500   11.8501 N   0  0  0  0  0  0  0  0  0  0  0  0
    0.2932   35.2517   10.7283 C   0  0  0  0  0  0  0  0  0  0  0  0
    0.5028   33.8708   10.7824 C   0  0  0  0  0  0  0  0  0  0  0  0
    0.4550   33.1940   12.0046 C   0  0  0  0  0  0  0  0  0  0  0  0
   -1.8372   30.7393   21.1911 H   0  0  0  0  0  0  0  0  0  0  0  0
   -2.1767   28.3805   22.8398 H   0  0  0  0  0  0  0  0  0  0  0  0
   -3.4087   29.5486   22.3370 H   0  0  0  0  0  0  0  0  0  0  0  0
   -3.1560   28.1567   19.9732 H   0  0  0  0  0  0  0  0  0  0  0  0
   -4.8820   27.5268   22.5056 H   0  0  0  0  0  0  0  0  0  0  0  0
   -5.2842   27.0107   20.8098 H   0  0  0  0  0  0  0  0  0  0  0  0
   -2.6974   26.1789   22.3655 H   0  0  0  0  0  0  0  0  0  0  0  0
   -3.1336   25.6816   20.6762 H   0  0  0  0  0  0  0  0  0  0  0  0
   -0.3538   26.7443   22.0053 H   0  0  0  0  0  0  0  0  0  0  0  0
    0.6356   24.9019   20.7701 H   0  0  0  0  0  0  0  0  0  0  0  0
    1.7413   29.5362   19.5063 H   0  0  0  0  0  0  0  0  0  0  0  0
    3.3677   26.8086   17.5750 H   0  0  0  0  0  0  0  0  0  0  0  0
    4.1153   31.0017   15.2261 H   0  0  0  0  0  0  0  0  0  0  0  0
    1.9586   32.0604   14.0363 H   0  0  0  0  0  0  0  0  0  0  0  0
   -1.5175   34.3065   15.2558 H   0  0  0  0  0  0  0  0  0  0  0  0
   -1.4864   33.1256   17.4338 H   0  0  0  0  0  0  0  0  0  0  0  0
    0.2367   31.4722   17.9366 H   0  0  0  0  0  0  0  0  0  0  0  0
   -0.1346   35.9493   13.9067 H   0  0  0  0  0  0  0  0  0  0  0  0
    0.3462   35.8039    9.8003 H   0  0  0  0  0  0  0  0  0  0  0  0
    0.7382   33.3200    9.8797 H   0  0  0  0  0  0  0  0  0  0  0  0
    0.6104   32.1199   12.0197 H   0  0  0  0  0  0  0  0  0  0  0  0
    3.0304   23.2552   18.3541 H   0  0  0  0  0  0  0  0  0  0  0  0
    1.7128   23.3441   19.5350 H   0  0  0  0  0  0  0  0  0  0  0  0
    3.3585   23.9275   19.9648 H   0  0  0  0  0  0  0  0  0  0  0  0
  1  2  2  0
  2  3  2  0
  2  4  1  0
  2  9  1  0
  4  5  1  0
  4 35  1  0
  5  6  1  0
  5 36  1  0
  5 37  1  0
  6  7  1  0
  6  8  1  0
  6 38  1  0
  7  8  1  0
  7 39  1  0
  7 40  1  0
  8 41  1  0
  8 42  1  0
  9 10  2  0
  9 12  1  0
 10 11  1  0
 10 43  1  0
 11 14  2  0
 11 44  1  0
 12 13  2  0
 12 45  1  0
 13 14  1  0
 13 17  1  0
 14 15  1  0
 15 16  1  0
 16 56  1  0
 16 57  1  0
 16 58  1  0
 17 18  1  0
 17 46  1  0
 18 19  1  0
 18 22  2  0
 19 20  1  0
 20 21  2  0
 20 23  1  0
 21 22  1  0
 21 47  1  0
 23 24  2  0
 23 28  1  0
 24 25  1  0
 24 48  1  0
 25 26  2  0
 25 29  1  0
 26 27  1  0
 26 49  1  0
 27 28  2  0
 27 50  1  0
 28 51  1  0
 29 30  2  0
 29 34  1  0
 30 31  1  0
 30 52  1  0
 31 32  2  0
 32 33  1  0
 32 53  1  0
 33 34  2  0
 33 54  1  0
 34 55  1  0
M  END
>  <HEADER>  (3) 
    TRANSFERASE                             05-DEC-04   1Y6B              

>  <TITLE>  (3) 
    CRYSTAL STRUCTURE OF VEGFR2 IN COMPLEX WITH A 2-ANILINO-5-ARYL-OXAZOLE
   2 INHIBITOR                                                            

>  <COMPND>  (3) 
    MOL_ID: 1;                                                            
   2 MOLECULE: VASCULAR ENDOTHELIAL GROWTH FACTOR RECEPTOR 2;             
   3 CHAIN: A;                                                            
   4 SYNONYM: VEGFR-2, KINASE INSERT DOMAIN RECEPTOR, PROTEIN-TYROSINE    
   5 KINASE RECEPTOR FLK-1;                                               
   6 EC: 2.7.1.112;                                                       
   7 ENGINEERED: YES                                                      

>  <SOURCE>  (3) 
    MOL_ID: 1;                                                            
   2 ORGANISM_SCIENTIFIC: HOMO SAPIENS;                                   
   3 ORGANISM_COMMON: HUMAN;                                              
   4 ORGANISM_TAXID: 9606;                                                
   5 GENE: KDR, FLK1;                                                     
   6 EXPRESSION_SYSTEM: ESCHERICHIA COLI;                                 
   7 EXPRESSION_SYSTEM_TAXID: 562                                         

>  <KEYWDS>  (3) 
    TRANSFERASE                                                           

>  <EXPDTA>  (3) 
    X-RAY DIFFRACTION                                                     

>  <AUTHOR>  (3) 
    P.A.HARRIS,M.CHEUNG,R.N.HUNTER,M.L.BROWN,J.M.VEAL,R.T.NOLTE,L.WANG,   
   2 W.LIU,R.M.CROSBY,J.H.JOHNSON,A.H.EPPERLY,R.KUMAR,D.K.LUTTRELL,       
   3 J.A.STAFFORD                                                         

>  <REVDAT>  (3) 
   4   11-OCT-17 1Y6B    1       REMARK                                   
   3   13-JUL-11 1Y6B    1       VERSN                                    
   2   24-FEB-09 1Y6B    1       VERSN                                    
   1   07-JUN-05 1Y6B    0                                                

>  <JRNL>  (3) 
      AUTH   P.A.HARRIS,M.CHEUNG,R.N.HUNTER,M.L.BROWN,J.M.VEAL,R.T.NOLTE, 
      AUTH 2 L.WANG,W.LIU,R.M.CROSBY,J.H.JOHNSON,A.H.EPPERLY,R.KUMAR,     
      AUTH 3 D.K.LUTTRELL,J.A.STAFFORD                                    
      TITL   DISCOVERY AND EVALUATION OF 2-ANILINO-5-ARYLOXAZOLES AS A    
      TITL 2 NOVEL CLASS OF VEGFR2 KINASE INHIBITORS.                     
      REF    J.MED.CHEM.                   V.  48  1610 2005              
      REFN                   ISSN 0022-2623                               
      PMID   15743202                                                     
      DOI    10.1021/JM049538W                                            

>  <REMARK>  (3) 
   2                                                                      
   2 RESOLUTION.    2.10 ANGSTROMS.                                       
   3                                                                      
   3 REFINEMENT.                                                          
   3   PROGRAM     : REFMAC 5.2.0005                                      
   3   AUTHORS     : MURSHUDOV,VAGIN,DODSON                               
   3                                                                      
   3    REFINEMENT TARGET : MAXIMUM LIKELIHOOD                            
   3                                                                      
   3  DATA USED IN REFINEMENT.                                            
   3   RESOLUTION RANGE HIGH (ANGSTROMS) : 2.10                           
   3   RESOLUTION RANGE LOW  (ANGSTROMS) : 16.60                          
   3   DATA CUTOFF            (SIGMA(F)) : NULL                           
   3   COMPLETENESS FOR RANGE        (%) : 99.7                           
   3   NUMBER OF REFLECTIONS             : 19994                          
   3                                                                      
   3  FIT TO DATA USED IN REFINEMENT.                                     
   3   CROSS-VALIDATION METHOD          : THROUGHOUT                      
   3   FREE R VALUE TEST SET SELECTION  : RANDOM                          
   3   R VALUE     (WORKING + TEST SET) : 0.194                           
   3   R VALUE            (WORKING SET) : 0.192                           
   3   FREE R VALUE                     : 0.236                           
   3   FREE R VALUE TEST SET SIZE   (%) : 3.300                           
   3   FREE R VALUE TEST SET COUNT      : 675                             
   3                                                                      
   3  FIT IN THE HIGHEST RESOLUTION BIN.                                  
   3   TOTAL NUMBER OF BINS USED           : 20                           
   3   BIN RESOLUTION RANGE HIGH       (A) : 2.10                         
   3   BIN RESOLUTION RANGE LOW        (A) : 2.15                         
   3   REFLECTION IN BIN     (WORKING SET) : 1429                         
   3   BIN COMPLETENESS (WORKING+TEST) (%) : 98.86                        
   3   BIN R VALUE           (WORKING SET) : 0.2170                       
   3   BIN FREE R VALUE SET COUNT          : 39                           
   3   BIN FREE R VALUE                    : 0.3380                       
   3                                                                      
   3  NUMBER OF NON-HYDROGEN ATOMS USED IN REFINEMENT.                    
   3   PROTEIN ATOMS            : 2135                                    
   3   NUCLEIC ACID ATOMS       : 0                                       
   3   HETEROGEN ATOMS          : 34                                      
   3   SOLVENT ATOMS            : 151                                     
   3                                                                      
   3  B VALUES.                                                           
   3   B VALUE TYPE : LIKELY RESIDUAL                                     
   3   FROM WILSON PLOT           (A**2) : 36.00                          
   3   MEAN B VALUE      (OVERALL, A**2) : 35.60                          
   3   OVERALL ANISOTROPIC B VALUE.                                       
   3    B11 (A**2) : 1.65000                                              
   3    B22 (A**2) : -0.02000                                             
   3    B33 (A**2) : -1.63000                                             
   3    B12 (A**2) : 0.00000                                              
   3    B13 (A**2) : 0.00000                                              
   3    B23 (A**2) : 0.00000                                              
   3                                                                      
   3  ESTIMATED OVERALL COORDINATE ERROR.                                 
   3   ESU BASED ON R VALUE                            (A): 0.190         
   3   ESU BASED ON FREE R VALUE                       (A): 0.171         
   3   ESU BASED ON MAXIMUM LIKELIHOOD                 (A): 0.124         
   3   ESU FOR B VALUES BASED ON MAXIMUM LIKELIHOOD (A**2): 8.890         
   3                                                                      
   3 CORRELATION COEFFICIENTS.                                            
   3   CORRELATION COEFFICIENT FO-FC      : 0.955                         
   3   CORRELATION COEFFICIENT FO-FC FREE : 0.935                         
   3                                                                      
   3  RMS DEVIATIONS FROM IDEAL VALUES        COUNT    RMS    WEIGHT      
   3   BOND LENGTHS REFINED ATOMS        (A):  2224 ; 0.016 ; 0.022       
   3   BOND LENGTHS OTHERS               (A):  2048 ; 0.002 ; 0.020       
   3   BOND ANGLES REFINED ATOMS   (DEGREES):  3003 ; 1.539 ; 1.982       
   3   BOND ANGLES OTHERS          (DEGREES):  4751 ; 0.981 ; 3.000       
   3   TORSION ANGLES, PERIOD 1    (DEGREES):   261 ; 6.620 ; 5.000       
   3   TORSION ANGLES, PERIOD 2    (DEGREES):    96 ;32.100 ;22.708       
   3   TORSION ANGLES, PERIOD 3    (DEGREES):   388 ;15.055 ;15.000       
   3   TORSION ANGLES, PERIOD 4    (DEGREES):    17 ;23.264 ;15.000       
   3   CHIRAL-CENTER RESTRAINTS       (A**3):   326 ; 0.096 ; 0.200       
   3   GENERAL PLANES REFINED ATOMS      (A):  2398 ; 0.007 ; 0.020       
   3   GENERAL PLANES OTHERS             (A):   475 ; 0.007 ; 0.020       
   3   NON-BONDED CONTACTS REFINED ATOMS (A):   427 ; 0.216 ; 0.200       
   3   NON-BONDED CONTACTS OTHERS        (A):  1935 ; 0.184 ; 0.200       
   3   NON-BONDED TORSION REFINED ATOMS  (A):  1045 ; 0.183 ; 0.200       
   3   NON-BONDED TORSION OTHERS         (A):  1195 ; 0.084 ; 0.200       
   3   H-BOND (X...Y) REFINED ATOMS      (A):   114 ; 0.192 ; 0.200       
   3   H-BOND (X...Y) OTHERS             (A):  NULL ;  NULL ;  NULL       
   3   POTENTIAL METAL-ION REFINED ATOMS (A):  NULL ;  NULL ;  NULL       
   3   POTENTIAL METAL-ION OTHERS        (A):  NULL ;  NULL ;  NULL       
   3   SYMMETRY VDW REFINED ATOMS        (A):     3 ; 0.037 ; 0.200       
   3   SYMMETRY VDW OTHERS               (A):    30 ; 0.161 ; 0.200       
   3   SYMMETRY H-BOND REFINED ATOMS     (A):     1 ; 0.499 ; 0.200       
   3   SYMMETRY H-BOND OTHERS            (A):  NULL ;  NULL ;  NULL       
   3   SYMMETRY METAL-ION REFINED ATOMS  (A):  NULL ;  NULL ;  NULL       
   3   SYMMETRY METAL-ION OTHERS         (A):  NULL ;  NULL ;  NULL       
   3                                                                      
   3  ISOTROPIC THERMAL FACTOR RESTRAINTS.     COUNT   RMS    WEIGHT      
   3   MAIN-CHAIN BOND REFINED ATOMS  (A**2):  1709 ; 1.362 ; 1.500       
   3   MAIN-CHAIN BOND OTHER ATOMS    (A**2):   537 ; 0.226 ; 1.500       
   3   MAIN-CHAIN ANGLE REFINED ATOMS (A**2):  2132 ; 1.545 ; 2.000       
   3   MAIN-CHAIN ANGLE OTHER ATOMS   (A**2):  NULL ;  NULL ;  NULL       
   3   SIDE-CHAIN BOND REFINED ATOMS  (A**2):  1071 ; 2.256 ; 3.000       
   3   SIDE-CHAIN BOND OTHER ATOMS    (A**2):  NULL ;  NULL ;  NULL       
   3   SIDE-CHAIN ANGLE REFINED ATOMS (A**2):   868 ; 3.213 ; 4.500       
   3   SIDE-CHAIN ANGLE OTHER ATOMS   (A**2):  NULL ;  NULL ;  NULL       
   3   LONG RANGE B REFINED ATOMS     (A**2):  NULL ;  NULL ;  NULL       
   3   LONG RANGE B OTHER ATOMS       (A**2):  NULL ;  NULL ;  NULL       
   3                                                                      
   3 ANISOTROPIC THERMAL FACTOR RESTRAINTS.    COUNT   RMS   WEIGHT       
   3   RIGID-BOND RESTRAINTS          (A**2):  NULL ;  NULL ;  NULL       
   3   SPHERICITY; FREE ATOMS         (A**2):  NULL ;  NULL ;  NULL       
   3   SPHERICITY; BONDED ATOMS       (A**2):  NULL ;  NULL ;  NULL       
   3                                                                      
   3  NCS RESTRAINTS STATISTICS                                           
   3   NUMBER OF DIFFERENT NCS GROUPS : NULL                              
   3                                                                      
   3  TLS DETAILS                                                         
   3   NUMBER OF TLS GROUPS  : 2                                          
   3                                                                      
   3   TLS GROUP : 1                                                      
   3    NUMBER OF COMPONENTS GROUP : 1                                    
   3    COMPONENTS        C SSSEQI   TO  C SSSEQI                         
   3    RESIDUE RANGE :   A   817        A   920                          
   3    ORIGIN FOR THE GROUP (A):   2.1180  34.2230   6.1800              
   3    T TENSOR                                                          
   3      T11:  -0.0728 T22:  -0.0119                                     
   3      T33:  -0.0658 T12:   0.0054                                     
   3      T13:   0.0011 T23:  -0.0100                                     
   3    L TENSOR                                                          
   3      L11:   1.6141 L22:   2.1684                                     
   3      L33:   2.8238 L12:   0.2375                                     
   3      L13:   0.0516 L23:   0.6725                                     
   3    S TENSOR                                                          
   3      S11:   0.0003 S12:   0.0706 S13:   0.0597                       
   3      S21:  -0.0606 S22:  -0.0193 S23:   0.1841                       
   3      S31:  -0.1453 S32:  -0.0900 S33:   0.0190                       
   3                                                                      
   3   TLS GROUP : 2                                                      
   3    NUMBER OF COMPONENTS GROUP : 1                                    
   3    COMPONENTS        C SSSEQI   TO  C SSSEQI                         
   3    RESIDUE RANGE :   A   921        A  1166                          
   3    ORIGIN FOR THE GROUP (A):   7.6840  41.4310  32.3890              
   3    T TENSOR                                                          
   3      T11:  -0.0008 T22:  -0.0514                                     
   3      T33:  -0.1174 T12:   0.0099                                     
   3      T13:  -0.0039 T23:  -0.0331                                     
   3    L TENSOR                                                          
   3      L11:   0.9418 L22:   2.5442                                     
   3      L33:   3.0375 L12:   0.5907                                     
   3      L13:   0.3750 L23:   2.0136                                     
   3    S TENSOR                                                          
   3      S11:  -0.0587 S12:  -0.0163 S13:   0.0285                       
   3      S21:   0.2259 S22:  -0.0183 S23:   0.0624                       
   3      S31:   0.0971 S32:  -0.0458 S33:   0.0770                       
   3                                                                      
   3  BULK SOLVENT MODELLING.                                             
   3   METHOD USED : MASK                                                 
   3   PARAMETERS FOR MASK CALCULATION                                    
   3   VDW PROBE RADIUS   : 1.20                                          
   3   ION PROBE RADIUS   : 0.80                                          
   3   SHRINKAGE RADIUS   : 0.80                                          
   3                                                                      
   3  OTHER REFINEMENT REMARKS: HYDROGENS HAVE BEEN ADDED IN THE RIDING   
   3  POSITIONS                                                           
   4                                                                      
   4 1Y6B COMPLIES WITH FORMAT V. 3.30, 13-JUL-11                         
 100                                                                      
 100 THIS ENTRY HAS BEEN PROCESSED BY RCSB ON 09-DEC-04.                  
 100 THE DEPOSITION ID IS D_1000031170.                                   
 200                                                                      
 200 EXPERIMENTAL DETAILS                                                 
 200  EXPERIMENT TYPE                : X-RAY DIFFRACTION                  
 200  DATE OF DATA COLLECTION        : NULL                               
 200  TEMPERATURE           (KELVIN) : NULL                               
 200  PH                             : NULL                               
 200  NUMBER OF CRYSTALS USED        : 1                                  
 200                                                                      
 200  SYNCHROTRON              (Y/N) : Y                                  
 200  RADIATION SOURCE               : APS                                
 200  BEAMLINE                       : 17-ID                              
 200  X-RAY GENERATOR MODEL          : NULL                               
 200  MONOCHROMATIC OR LAUE    (M/L) : M                                  
 200  WAVELENGTH OR RANGE        (A) : 1.0                                
 200  MONOCHROMATOR                  : NULL                               
 200  OPTICS                         : NULL                               
 200                                                                      
 200  DETECTOR TYPE                  : NULL                               
 200  DETECTOR MANUFACTURER          : NULL                               
 200  INTENSITY-INTEGRATION SOFTWARE : MAR                                
 200  DATA SCALING SOFTWARE          : SCALEPACK                          
 200                                                                      
 200  NUMBER OF UNIQUE REFLECTIONS   : 20768                              
 200  RESOLUTION RANGE HIGH      (A) : 2.100                              
 200  RESOLUTION RANGE LOW       (A) : 20.000                             
 200  REJECTION CRITERIA  (SIGMA(I)) : -3.000                             
 200                                                                      
 200 OVERALL.                                                             
 200  COMPLETENESS FOR RANGE     (%) : 99.5                               
 200  DATA REDUNDANCY                : 6.790                              
 200  R MERGE                    (I) : 0.04500                            
 200  R SYM                      (I) : NULL                               
 200  <I/SIGMA(I)> FOR THE DATA SET  : 42.9000                            
 200                                                                      
 200 IN THE HIGHEST RESOLUTION SHELL.                                     
 200  HIGHEST RESOLUTION SHELL, RANGE HIGH (A) : 2.10                     
 200  HIGHEST RESOLUTION SHELL, RANGE LOW  (A) : 2.17                     
 200  COMPLETENESS FOR SHELL     (%) : 99.1                               
 200  DATA REDUNDANCY IN SHELL       : NULL                               
 200  R MERGE FOR SHELL          (I) : 0.35500                            
 200  R SYM FOR SHELL            (I) : NULL                               
 200  <I/SIGMA(I)> FOR SHELL         : 5.460                              
 200                                                                      
 200 DIFFRACTION PROTOCOL: SINGLE WAVELENGTH                              
 200 METHOD USED TO DETERMINE THE STRUCTURE: MOLECULAR REPLACEMENT        
 200 SOFTWARE USED: AMORE                                                 
 200 STARTING MODEL: NULL                                                 
 200                                                                      
 200 REMARK: NULL                                                         
 280                                                                      
 280 CRYSTAL                                                              
 280 SOLVENT CONTENT, VS   (%): 40.17                                     
 280 MATTHEWS COEFFICIENT, VM (ANGSTROMS**3/DA): 2.06                     
 280                                                                      
 280 CRYSTALLIZATION CONDITIONS: NULL                                     
 290                                                                      
 290 CRYSTALLOGRAPHIC SYMMETRY                                            
 290 SYMMETRY OPERATORS FOR SPACE GROUP: P 21 21 21                       
 290                                                                      
 290      SYMOP   SYMMETRY                                                
 290     NNNMMM   OPERATOR                                                
 290       1555   X,Y,Z                                                   
 290       2555   -X+1/2,-Y,Z+1/2                                         
 290       3555   -X,Y+1/2,-Z+1/2                                         
 290       4555   X+1/2,-Y+1/2,-Z                                         
 290                                                                      
 290     WHERE NNN -> OPERATOR NUMBER                                     
 290           MMM -> TRANSLATION VECTOR                                  
 290                                                                      
 290 CRYSTALLOGRAPHIC SYMMETRY TRANSFORMATIONS                            
 290 THE FOLLOWING TRANSFORMATIONS OPERATE ON THE ATOM/HETATM             
 290 RECORDS IN THIS ENTRY TO PRODUCE CRYSTALLOGRAPHICALLY                
 290 RELATED MOLECULES.                                                   
 290   SMTRY1   1  1.000000  0.000000  0.000000        0.00000            
 290   SMTRY2   1  0.000000  1.000000  0.000000        0.00000            
 290   SMTRY3   1  0.000000  0.000000  1.000000        0.00000            
 290   SMTRY1   2 -1.000000  0.000000  0.000000       18.77200            
 290   SMTRY2   2  0.000000 -1.000000  0.000000        0.00000            
 290   SMTRY3   2  0.000000  0.000000  1.000000       48.38350            
 290   SMTRY1   3 -1.000000  0.000000  0.000000        0.00000            
 290   SMTRY2   3  0.000000  1.000000  0.000000       47.16650            
 290   SMTRY3   3  0.000000  0.000000 -1.000000       48.38350            
 290   SMTRY1   4  1.000000  0.000000  0.000000       18.77200            
 290   SMTRY2   4  0.000000 -1.000000  0.000000       47.16650            
 290   SMTRY3   4  0.000000  0.000000 -1.000000        0.00000            
 290                                                                      
 290 REMARK: NULL                                                         
 300                                                                      
 300 BIOMOLECULE: 1                                                       
 300 SEE REMARK 350 FOR THE AUTHOR PROVIDED AND/OR PROGRAM                
 300 GENERATED ASSEMBLY INFORMATION FOR THE STRUCTURE IN                  
 300 THIS ENTRY. THE REMARK MAY ALSO PROVIDE INFORMATION ON               
 300 BURIED SURFACE AREA.                                                 
 350                                                                      
 350 COORDINATES FOR A COMPLETE MULTIMER REPRESENTING THE KNOWN           
 350 BIOLOGICALLY SIGNIFICANT OLIGOMERIZATION STATE OF THE                
 350 MOLECULE CAN BE GENERATED BY APPLYING BIOMT TRANSFORMATIONS          
 350 GIVEN BELOW.  BOTH NON-CRYSTALLOGRAPHIC AND                          
 350 CRYSTALLOGRAPHIC OPERATIONS ARE GIVEN.                               
 350                                                                      
 350 BIOMOLECULE: 1                                                       
 350 AUTHOR DETERMINED BIOLOGICAL UNIT: MONOMERIC                         
 350 APPLY THE FOLLOWING TO CHAINS: A                                     
 350   BIOMT1   1  1.000000  0.000000  0.000000        0.00000            
 350   BIOMT2   1  0.000000  1.000000  0.000000        0.00000            
 350   BIOMT3   1  0.000000  0.000000  1.000000        0.00000            
 465                                                                      
 465 MISSING RESIDUES                                                     
 465 THE FOLLOWING RESIDUES WERE NOT LOCATED IN THE                       
 465 EXPERIMENT. (M=MODEL NUMBER; RES=RESIDUE NAME; C=CHAIN               
 465 IDENTIFIER; SSSEQ=SEQUENCE NUMBER; I=INSERTION CODE.)                
 465                                                                      
 465   M RES C SSSEQI                                                     
 465     MET A   804                                                      
 465     ASP A   805                                                      
 465     PRO A   806                                                      
 465     ASP A   807                                                      
 465     GLU A   808                                                      
 465     LEU A   809                                                      
 465     PRO A   810                                                      
 465     LEU A   811                                                      
 465     ASP A   812                                                      
 465     GLU A   813                                                      
 465     HIS A   814                                                      
 465     CYS A   815                                                      
 465     GLU A   816                                                      
 465     ALA A   842                                                      
 465     PHE A   843                                                      
 465     GLU A   870                                                      
 465     GLY A   871                                                      
 465     LYS A   937                                                      
 465     THR A   938                                                      
 465     LYS A   939                                                      
 465     GLY A   940                                                      
 465     ALA A   941                                                      
 465     ARG A   942                                                      
 465     PHE A   943                                                      
 465     ARG A   944                                                      
 465     GLN A   945                                                      
 465     GLY A   946                                                      
 465     LYS A   947                                                      
 465     ASP A   948                                                      
 465     TYR A   949                                                      
 465     VAL A   950                                                      
 465     GLY A   951                                                      
 465     ALA A   952                                                      
 465     ILE A   953                                                      
 465     PRO A   954                                                      
 465     VAL A   955                                                      
 465     ASP A   956                                                      
 465     LEU A   957                                                      
 465     LYS A   958                                                      
 465     ARG A   959                                                      
 465     ARG A   960                                                      
 465     LEU A   961                                                      
 465     ASP A   962                                                      
 465     SER A   963                                                      
 465     ILE A   964                                                      
 465     THR A   965                                                      
 465     SER A   966                                                      
 465     SER A   967                                                      
 465     GLN A   968                                                      
 465     SER A   969                                                      
 465     SER A   970                                                      
 465     ALA A   971                                                      
 465     SER A   972                                                      
 465     SER A   973                                                      
 465     GLY A   974                                                      
 465     PHE A   975                                                      
 465     VAL A   976                                                      
 465     GLU A   977                                                      
 465     GLU A   978                                                      
 465     LYS A   979                                                      
 465     SER A   980                                                      
 465     LEU A   981                                                      
 465     SER A   982                                                      
 465     ASP A   983                                                      
 465     VAL A   984                                                      
 465     GLU A   985                                                      
 465     GLU A   986                                                      
 465     GLU A   987                                                      
 465     GLU A   988                                                      
 465     ALA A   989                                                      
 465     PRO A   990                                                      
 465     GLU A   991                                                      
 465     ASP A   992                                                      
 465     LEU A   993                                                      
 465     TYR A   994                                                      
 465     LYS A   995                                                      
 465     ASP A   996                                                      
 465     GLY A  1046                                                      
 465     LEU A  1047                                                      
 465     ALA A  1048                                                      
 465     ARG A  1049                                                      
 465     ASP A  1050                                                      
 465     ILE A  1051                                                      
 465     TYR A  1052                                                      
 465     LYS A  1053                                                      
 465     ASP A  1054                                                      
 465     PRO A  1055                                                      
 465     ASP A  1056                                                      
 465     TYR A  1057                                                      
 465     VAL A  1058                                                      
 465     ARG A  1059                                                      
 465     LYS A  1060                                                      
 465     GLY A  1061                                                      
 465     ASP A  1062                                                      
 465     ALA A  1063                                                      
 465     ARG A  1064                                                      
 465     LEU A  1065                                                      
 465     GLN A  1167                                                      
 465     GLN A  1168                                                      
 465     ASP A  1169                                                      
 500                                                                      
 500 GEOMETRY AND STEREOCHEMISTRY                                         
 500 SUBTOPIC: TORSION ANGLES                                             
 500                                                                      
 500 TORSION ANGLES OUTSIDE THE EXPECTED RAMACHANDRAN REGIONS:            
 500 (M=MODEL NUMBER; RES=RESIDUE NAME; C=CHAIN IDENTIFIER;               
 500 SSEQ=SEQUENCE NUMBER; I=INSERTION CODE).                             
 500                                                                      
 500 STANDARD TABLE:                                                      
 500 FORMAT:(10X,I3,1X,A3,1X,A1,I4,A1,4X,F7.2,3X,F7.2)                    
 500                                                                      
 500 EXPECTED VALUES: GJ KLEYWEGT AND TA JONES (1996). PHI/PSI-           
 500 CHOLOGY: RAMACHANDRAN REVISITED. STRUCTURE 4, 1395 - 1400            
 500                                                                      
 500  M RES CSSEQI        PSI       PHI                                   
 500    LYS A 856      -12.94     75.92                                   
 500    ALA A 858       48.83    -77.44                                   
 500    ARG A1025      -12.31     87.46                                   
 500    ASP A1026       56.20   -142.60                                   
 500    SER A1035     -165.52   -114.28                                   
 500    ASN A1038       29.33     49.59                                   
 500    ARG A1078       -0.45     64.77                                   
 500                                                                      
 500 REMARK: NULL                                                         
 800                                                                      
 800 SITE                                                                 
 800 SITE_IDENTIFIER: AC1                                                 
 800 EVIDENCE_CODE: SOFTWARE                                              
 800 SITE_DESCRIPTION: BINDING SITE FOR RESIDUE AAX A 201                 
 900                                                                      
 900 RELATED ENTRIES                                                      
 900 RELATED ID: 1VR2   RELATED DB: PDB                                   
 900 UNLIGANDED STRUCTURE                                                 
 900 RELATED ID: 1Y6A   RELATED DB: PDB                                   
 900 CRYSTAL STRUCTURE OF VEGFR2 IN COMPLEX WITH A 2-ANILINO-5-ARYL-      
 900 OXAZOLE INHIBITOR                                                    

>  <DBREF>  (3) 
 1Y6B A  804  1169  UNP    P35968   VGFR2_HUMAN    806   1171             

>  <SEQRES>  (3) 
   1 A  366  MET ASP PRO ASP GLU LEU PRO LEU ASP GLU HIS CYS GLU          
   2 A  366  ARG LEU PRO TYR ASP ALA SER LYS TRP GLU PHE PRO ARG          
   3 A  366  ASP ARG LEU LYS LEU GLY LYS PRO LEU GLY ARG GLY ALA          
   4 A  366  PHE GLY GLN VAL ILE GLU ALA ASP ALA PHE GLY ILE ASP          
   5 A  366  LYS THR ALA THR CYS ARG THR VAL ALA VAL LYS MET LEU          
   6 A  366  LYS GLU GLY ALA THR HIS SER GLU HIS ARG ALA LEU MET          
   7 A  366  SER GLU LEU LYS ILE LEU ILE HIS ILE GLY HIS HIS LEU          
   8 A  366  ASN VAL VAL ASN LEU LEU GLY ALA CYS THR LYS PRO GLY          
   9 A  366  GLY PRO LEU MET VAL ILE VAL GLU PHE CYS LYS PHE GLY          
  10 A  366  ASN LEU SER THR TYR LEU ARG SER LYS ARG ASN GLU PHE          
  11 A  366  VAL PRO TYR LYS THR LYS GLY ALA ARG PHE ARG GLN GLY          
  12 A  366  LYS ASP TYR VAL GLY ALA ILE PRO VAL ASP LEU LYS ARG          
  13 A  366  ARG LEU ASP SER ILE THR SER SER GLN SER SER ALA SER          
  14 A  366  SER GLY PHE VAL GLU GLU LYS SER LEU SER ASP VAL GLU          
  15 A  366  GLU GLU GLU ALA PRO GLU ASP LEU TYR LYS ASP PHE LEU          
  16 A  366  THR LEU GLU HIS LEU ILE CYS TYR SER PHE GLN VAL ALA          
  17 A  366  LYS GLY MET GLU PHE LEU ALA SER ARG LYS CYS ILE HIS          
  18 A  366  ARG ASP LEU ALA ALA ARG ASN ILE LEU LEU SER GLU LYS          
  19 A  366  ASN VAL VAL LYS ILE CYS ASP PHE GLY LEU ALA ARG ASP          
  20 A  366  ILE TYR LYS ASP PRO ASP TYR VAL ARG LYS GLY ASP ALA          
  21 A  366  ARG LEU PRO LEU LYS TRP MET ALA PRO GLU THR ILE PHE          
  22 A  366  ASP ARG VAL TYR THR ILE GLN SER ASP VAL TRP SER PHE          
  23 A  366  GLY VAL LEU LEU TRP GLU ILE PHE SER LEU GLY ALA SER          
  24 A  366  PRO TYR PRO GLY VAL LYS ILE ASP GLU GLU PHE CYS ARG          
  25 A  366  ARG LEU LYS GLU GLY THR ARG MET ARG ALA PRO ASP TYR          
  26 A  366  THR THR PRO GLU MET TYR GLN THR MET LEU ASP CYS TRP          
  27 A  366  HIS GLY GLU PRO SER GLN ARG PRO THR PHE SER GLU LEU          
  28 A  366  VAL GLU HIS LEU GLY ASN LEU LEU GLN ALA ASN ALA GLN          
  29 A  366  GLN ASP                                                      

>  <HET>  (3) 
 AAX  A 201      34                                                       

>  <HETNAM>  (3) 
     AAX N-(CYCLOPROPYLMETHYL)-4-(METHYLOXY)-3-({5-[3-(3-                 
   2 AAX  PYRIDINYL)PHENYL]-1,3-OXAZOL-2-YL}AMINO)                        
   3 AAX  BENZENESULFONAMIDE                                              

>  <FORMUL>  (3) 
   2  AAX    C25 H24 N4 O4 S                                              
   3  HOH   *151(H2 O)                                                    

>  <HELIX>  (3) 
   1   1 ASP A  821  GLU A  826  1                                   6
   2   2 PRO A  828  ASP A  830  1                                   3
   3   3 THR A  873  GLY A  891  1                                  19
   4   4 ASN A  921  LYS A  929  1                                   9
   5   5 THR A  999  ARG A 1020  1                                  22
   6   6 ALA A 1028  ARG A 1030  1                                   3
   7   7 PRO A 1066  ARG A 1078  1                                  13
   8   8 THR A 1081  SER A 1098  1                                  18
   9   9 ASP A 1110  GLY A 1120  1                                  11
  10  10 THR A 1130  TRP A 1141  1                                  12
  11  11 GLU A 1144  ARG A 1148  1                                   5
  12  12 THR A 1150  ALA A 1166  1                                  17

>  <SHEET>  (3) 
   1   1 1 LEU A 832  GLY A 839  0
   2   2 1 GLN A 845  PHE A 852  0
   3   3 1 CYS A 860  MET A 867  0
   4   4 1 LEU A 899  CYS A 903  0
   5   5 1 MET A 911  GLU A 915  0
   6   6 1 ILE A1032  LEU A1034  0
   7   7 1 VAL A1040  ILE A1042  0

>  <SITE>  (3) 
   1 AC1 16 HOH A  75  HOH A 128  LEU A 838  ALA A 864                    
   2 AC1 16 LYS A 866  GLU A 883  VAL A 912  VAL A 914                    
   3 AC1 16 GLU A 915  PHE A 916  CYS A 917  LYS A 918                    
   4 AC1 16 GLY A 920  ASN A 921  LEU A1033  PHE A1045                    

>  <ORIGX1>  (3) 
      1.000000  0.000000  0.000000        0.00000                         

>  <ORIGX2>  (3) 
      0.000000  1.000000  0.000000        0.00000                         

>  <ORIGX3>  (3) 
      0.000000  0.000000  1.000000        0.00000                         

>  <SCALE1>  (3) 
      0.026635  0.000000  0.000000        0.00000                         

>  <SCALE2>  (3) 
      0.000000  0.010601  0.000000        0.00000                         

>  <SCALE3>  (3) 
      0.000000  0.000000  0.010334        0.00000                         

>  <MolID>  (3) 
0

>  <ConfID>  (3) 
3

>  <Score>  (3) 
-8.54

>  <VDW>  (3) 
-45.05

>  <Hbond>  (3) 
-1.78

>  <Electrop>  (3) 
-2.75

$$$$
