MODEL 1
REMARK WATVina v2023.12.13
REMARK WATVINA RESULT:      -9.2
REMARK SCOREN: vdw     :hbond   :elec    :desol   :clash   :torsion  
REMARK SCOREV: -48.93  :-1.96   :-3.36   :0.57    :0.20    :0.11    
REMARK  Name = i.pdb
REMARK  9 active torsions:
REMARK  status: ('A' for Active; 'I' for Inactive)
REMARK    1  A    between atoms: _2  and  _4
REMARK    2  A    between atoms: _2  and  _9
REMARK    3  A    between atoms: _4  and  _5
REMARK    4  A    between atoms: _5  and  _6
REMARK    5  A    between atoms: _13  and  _17
REMARK    6  A    between atoms: _14  and  _15
REMARK    7  A    between atoms: _17  and  _18
REMARK    8  A    between atoms: _20  and  _23
REMARK    9  A    between atoms: _25  and  _29
ROOT
ATOM      9  C5  UNL     1       0.181  28.542  20.822  0.00 -0.18     0.084 A 
ATOM     10  C6  UNL     1      -0.130  27.203  21.023  0.00 -0.12    -0.038 A 
ATOM     11  C7  UNL     1       0.606  26.198  20.395  0.00 -0.15    -0.016 A 
ATOM     12  C8  UNL     1       1.256  28.837  19.949  0.00 -0.20    -0.015 A 
ATOM     13  C9  UNL     1       1.996  27.837  19.277  0.00 -0.23     0.086 A 
ATOM     14  C10 UNL     1       1.657  26.513  19.511  0.00 -0.21     0.142 A 
ATOM     43  H9  UNL     1      -0.934  26.911  21.695  0.00 -0.02     0.064 H 
ATOM     44  H10 UNL     1       0.337  25.163  20.587  0.00 -0.02     0.066 H 
ATOM     45  H11 UNL     1       1.528  29.883  19.817  0.00 -0.07     0.066 H 
ENDROOT
BRANCH 13 17
ATOM     17  N2  UNL     1       2.994  28.101  18.334  0.00 -0.36    -0.306 N 
ATOM     46  H12 UNL     1       3.775  27.446  18.345  0.00 -0.51     0.171 HD
BRANCH 17 18
ATOM     18  C12 UNL     1       2.912  29.053  17.370  0.00 -0.32     0.299 A 
ATOM     19  O4  UNL     1       1.893  29.932  17.341  0.00 -0.17    -0.423 O 
ATOM     20  C13 UNL     1       2.219  30.792  16.344  0.00 -0.26     0.156 A 
ATOM     21  C14 UNL     1       3.397  30.359  15.736  0.00 -0.44     0.076 A 
ATOM     22  N3  UNL     1       3.856  29.261  16.402  0.00 -0.71    -0.201 NA
ATOM     47  H13 UNL     1       3.921  30.798  14.899  0.00 -0.14     0.088 H 
BRANCH 20 23
ATOM     23  C15 UNL     1       1.264  31.846  16.014  0.00 -0.26     0.020 A 
ATOM     24  C16 UNL     1       1.220  32.397  14.734  0.00 -0.30    -0.043 A 
ATOM     25  C17 UNL     1       0.263  33.365  14.425  0.00 -0.29    -0.016 A 
ATOM     26  C18 UNL     1      -0.701  33.736  15.385  0.00 -0.23    -0.054 A 
ATOM     27  C19 UNL     1      -0.687  33.113  16.629  0.00 -0.20    -0.061 A 
ATOM     28  C20 UNL     1       0.274  32.176  16.948  0.00 -0.20    -0.051 A 
ATOM     48  H14 UNL     1       1.975  32.121  14.004  0.00 -0.06     0.064 H 
ATOM     49  H15 UNL     1      -1.457  34.471  15.151  0.00 -0.07     0.063 H 
ATOM     50  H16 UNL     1      -1.423  33.389  17.380  0.00 -0.03     0.062 H 
ATOM     51  H17 UNL     1       0.281  31.735  17.942  0.00 -0.03     0.063 H 
BRANCH 25 29
ATOM     29  C21 UNL     1       0.270  33.980  13.061  0.00 -0.39     0.000 A 
ATOM     30  C22 UNL     1       0.097  35.363  12.884  0.00 -0.42     0.035 A 
ATOM     31  N4  UNL     1       0.134  35.935  11.660  0.00 -0.81    -0.264 NA
ATOM     32  C23 UNL     1       0.324  35.184  10.570  0.00 -0.49     0.027 A 
ATOM     33  C24 UNL     1       0.514  33.804  10.684  0.00 -0.30    -0.043 A 
ATOM     34  C25 UNL     1       0.468  33.184  11.936  0.00 -0.26    -0.051 A 
ATOM     52  H18 UNL     1      -0.063  36.031  13.717  0.00 -0.08     0.085 H 
ATOM     53  H19 UNL     1       0.376  35.693   9.617  0.00 -0.08     0.084 H 
ATOM     54  H20 UNL     1       0.733  33.209   9.806  0.00 -0.09     0.064 H 
ATOM     55  H21 UNL     1       0.608  32.109  11.999  0.00 -0.14     0.063 H 
ENDBRANCH 25 29
ENDBRANCH 20 23
ENDBRANCH 17 18
ENDBRANCH 13 17
BRANCH 9 2
ATOM      1  O1  UNL     1      -0.011  30.916  21.590  0.00 -0.14    -0.207 OA
ATOM      2  S1  UNL     1      -0.689  29.680  21.637  0.00 -0.36     0.240 S 
ATOM      3  O2  UNL     1      -0.750  29.185  22.974  0.00 -0.43    -0.207 OA
BRANCH 2 4
ATOM      4  N1  UNL     1      -2.100  29.934  20.946  0.00 -0.08    -0.211 N 
ATOM     35  H1  UNL     1      -2.893  29.456  21.400  0.00 -0.01     0.141 HD
BRANCH 4 5
ATOM      5  C1  UNL     1      -2.124  30.012  19.485  0.00 -0.13     0.014 C 
ATOM     36  H2  UNL     1      -1.384  30.732  19.122  0.00 -0.02     0.044 H 
ATOM     37  H3  UNL     1      -1.859  29.027  19.084  0.00 -0.04     0.044 H 
BRANCH 5 6
ATOM      6  C2  UNL     1      -3.502  30.368  18.928  0.00 -0.22    -0.028 C 
ATOM      7  C3  UNL     1      -3.503  30.803  17.463  0.00 -0.40    -0.049 C 
ATOM      8  C4  UNL     1      -3.746  31.824  18.567  0.00 -0.22    -0.049 C 
ATOM     38  H4  UNL     1      -4.308  29.744  19.285  0.00 -0.06     0.032 H 
ATOM     39  H5  UNL     1      -2.559  30.836  16.932  0.00 -0.09     0.027 H 
ATOM     40  H6  UNL     1      -4.348  30.525  16.850  0.00 -0.13     0.027 H 
ATOM     41  H7  UNL     1      -2.973  32.543  18.809  0.00 -0.02     0.027 H 
ATOM     42  H8  UNL     1      -4.753  32.209  18.696  0.00 -0.06     0.027 H 
ENDBRANCH 5 6
ENDBRANCH 4 5
ENDBRANCH 2 4
ENDBRANCH 9 2
BRANCH 14 15
ATOM     15  O3  UNL     1       2.379  25.552  18.855  0.00 -0.15    -0.495 OA
ATOM     16  C11 UNL     1       2.625  24.230  19.361  0.00 -0.24     0.078 C 
ATOM     56  H22 UNL     1       3.209  23.705  18.613  0.00 -0.06     0.067 H 
ATOM     57  H23 UNL     1       1.679  23.701  19.505  0.00 -0.03     0.067 H 
ATOM     58  H24 UNL     1       3.187  24.285  20.291  0.00 -0.07     0.067 H 
ENDBRANCH 14 15
TORSDOF 9
ENDMDL
MODEL 2
REMARK WATVina v2023.12.13
REMARK WATVINA RESULT:      -8.6
REMARK SCOREN: vdw     :hbond   :elec    :desol   :clash   :torsion  
REMARK SCOREV: -45.00  :-2.09   :-3.94   :0.73    :0.19    :0.32    
REMARK  Name = i.pdb
REMARK  9 active torsions:
REMARK  status: ('A' for Active; 'I' for Inactive)
REMARK    1  A    between atoms: _2  and  _4
REMARK    2  A    between atoms: _2  and  _9
REMARK    3  A    between atoms: _4  and  _5
REMARK    4  A    between atoms: _5  and  _6
REMARK    5  A    between atoms: _13  and  _17
REMARK    6  A    between atoms: _14  and  _15
REMARK    7  A    between atoms: _17  and  _18
REMARK    8  A    between atoms: _20  and  _23
REMARK    9  A    between atoms: _25  and  _29
ROOT
ATOM      9  C5  UNL     1       1.328  24.951  19.378  0.00 -0.19     0.084 A 
ATOM     10  C6  UNL     1       0.301  25.478  20.150  0.00 -0.12    -0.038 A 
ATOM     11  C7  UNL     1       0.187  26.856  20.341  0.00 -0.14    -0.016 A 
ATOM     12  C8  UNL     1       2.253  25.863  18.815  0.00 -0.25    -0.015 A 
ATOM     13  C9  UNL     1       2.176  27.260  19.021  0.00 -0.30     0.086 A 
ATOM     14  C10 UNL     1       1.131  27.744  19.792  0.00 -0.18     0.142 A 
ATOM     43  H9  UNL     1      -0.452  24.831  20.596  0.00 -0.02     0.064 H 
ATOM     44  H10 UNL     1      -0.638  27.227  20.944  0.00 -0.02     0.066 H 
ATOM     45  H11 UNL     1       3.039  25.459  18.178  0.00 -0.10     0.066 H 
ENDROOT
BRANCH 13 17
ATOM     17  N2  UNL     1       3.130  28.173  18.562  0.00 -0.27    -0.306 N 
ATOM     46  H12 UNL     1       4.047  28.089  19.000  0.00 -0.55     0.171 HD
BRANCH 17 18
ATOM     18  C12 UNL     1       2.944  29.029  17.525  0.00 -0.30     0.299 A 
ATOM     19  O4  UNL     1       1.923  29.906  17.516  0.00 -0.17    -0.423 O 
ATOM     20  C13 UNL     1       2.139  30.664  16.414  0.00 -0.26     0.156 A 
ATOM     21  C14 UNL     1       3.250  30.170  15.731  0.00 -0.41     0.076 A 
ATOM     22  N3  UNL     1       3.782  29.139  16.448  0.00 -0.74    -0.201 NA
ATOM     47  H13 UNL     1       3.683  30.524  14.806  0.00 -0.08     0.088 H 
BRANCH 20 23
ATOM     23  C15 UNL     1       1.148  31.686  16.084  0.00 -0.25     0.020 A 
ATOM     24  C16 UNL     1       1.137  32.294  14.829  0.00 -0.28    -0.043 A 
ATOM     25  C17 UNL     1       0.149  33.227  14.517  0.00 -0.24    -0.016 A 
ATOM     26  C18 UNL     1      -0.877  33.507  15.444  0.00 -0.13    -0.054 A 
ATOM     27  C19 UNL     1      -0.890  32.828  16.658  0.00 -0.18    -0.061 A 
ATOM     28  C20 UNL     1       0.101  31.923  16.982  0.00 -0.20    -0.051 A 
ATOM     48  H14 UNL     1       1.938  32.088  14.126  0.00 -0.07     0.064 H 
ATOM     49  H15 UNL     1      -1.657  34.215  15.206  0.00 -0.06     0.063 H 
ATOM     50  H16 UNL     1      -1.673  33.033  17.384  0.00 -0.03     0.062 H 
ATOM     51  H17 UNL     1       0.083  31.438  17.955  0.00 -0.03     0.063 H 
BRANCH 25 29
ATOM     29  C21 UNL     1       0.189  33.905  13.184  0.00 -0.39     0.000 A 
ATOM     30  C22 UNL     1       0.031  35.297  13.069  0.00 -0.40     0.035 A 
ATOM     31  N4  UNL     1       0.098  35.925  11.874  0.00 -0.82    -0.264 NA
ATOM     32  C23 UNL     1       0.304  35.224  10.753  0.00 -0.50     0.027 A 
ATOM     33  C24 UNL     1       0.479  33.838  10.807  0.00 -0.32    -0.043 A 
ATOM     34  C25 UNL     1       0.402  33.161  12.027  0.00 -0.32    -0.051 A 
ATOM     52  H18 UNL     1      -0.140  35.926  13.928  0.00 -0.08     0.085 H 
ATOM     53  H19 UNL     1       0.380  35.776   9.827  0.00 -0.11     0.084 H 
ATOM     54  H20 UNL     1       0.711  33.283   9.906  0.00 -0.14     0.064 H 
ATOM     55  H21 UNL     1       0.532  32.083  12.042  0.00 -0.13     0.063 H 
ENDBRANCH 25 29
ENDBRANCH 20 23
ENDBRANCH 17 18
ENDBRANCH 13 17
BRANCH 9 2
ATOM      1  O1  UNL     1       1.134  22.660  20.365  0.00 -0.04    -0.207 OA
ATOM      2  S1  UNL     1       1.375  23.321  19.142  0.00 -0.36     0.240 S 
ATOM      3  O2  UNL     1       2.703  23.070  18.683  0.00 -0.05    -0.207 OA
BRANCH 2 4
ATOM      4  N1  UNL     1       0.219  22.845  18.158  0.00 -0.19    -0.211 N 
ATOM     35  H1  UNL     1       0.298  23.206  17.196  0.00 -0.51     0.141 HD
BRANCH 4 5
ATOM      5  C1  UNL     1      -1.130  22.737  18.715  0.00 -0.13     0.014 C 
ATOM     36  H2  UNL     1      -1.104  22.282  19.710  0.00 -0.01     0.044 H 
ATOM     37  H3  UNL     1      -1.540  23.748  18.819  0.00 -0.03     0.044 H 
BRANCH 5 6
ATOM      6  C2  UNL     1      -2.087  21.954  17.817  0.00 -0.27    -0.028 C 
ATOM      7  C3  UNL     1      -3.556  22.036  18.227  0.00 -0.17    -0.049 C 
ATOM      8  C4  UNL     1      -2.775  20.745  18.427  0.00 -0.15    -0.049 C 
ATOM     38  H4  UNL     1      -1.840  21.978  16.765  0.00 -0.09     0.032 H 
ATOM     39  H5  UNL     1      -3.818  22.619  19.103  0.00 -0.02     0.027 H 
ATOM     40  H6  UNL     1      -4.304  22.048  17.447  0.00 -0.03     0.027 H 
ATOM     41  H7  UNL     1      -2.483  20.446  19.427  0.00 -0.01     0.027 H 
ATOM     42  H8  UNL     1      -2.991  19.908  17.771  0.00 -0.03     0.027 H 
ENDBRANCH 5 6
ENDBRANCH 4 5
ENDBRANCH 2 4
ENDBRANCH 9 2
BRANCH 14 15
ATOM     15  O3  UNL     1       1.066  29.099  19.987  0.00 -0.14    -0.495 OA
ATOM     16  C11 UNL     1       0.311  29.737  21.029  0.00 -0.20     0.078 C 
ATOM     56  H22 UNL     1       0.469  30.806  20.930  0.00 -0.05     0.067 H 
ATOM     57  H23 UNL     1       0.677  29.416  22.009  0.00 -0.08     0.067 H 
ATOM     58  H24 UNL     1      -0.747  29.512  20.915  0.00 -0.02     0.067 H 
ENDBRANCH 14 15
TORSDOF 9
ENDMDL
MODEL 3
REMARK WATVina v2023.12.13
REMARK WATVINA RESULT:      -7.6
REMARK SCOREN: vdw     :hbond   :elec    :desol   :clash   :torsion  
REMARK SCOREV: -43.13  :-1.63   :-3.07   :0.49    :0.25    :0.64    
REMARK  Name = i.pdb
REMARK  9 active torsions:
REMARK  status: ('A' for Active; 'I' for Inactive)
REMARK    1  A    between atoms: _2  and  _4
REMARK    2  A    between atoms: _2  and  _9
REMARK    3  A    between atoms: _4  and  _5
REMARK    4  A    between atoms: _5  and  _6
REMARK    5  A    between atoms: _13  and  _17
REMARK    6  A    between atoms: _14  and  _15
REMARK    7  A    between atoms: _17  and  _18
REMARK    8  A    between atoms: _20  and  _23
REMARK    9  A    between atoms: _25  and  _29
ROOT
ATOM      9  C5  UNL     1       0.768  25.338  19.766  0.00 -0.14     0.084 A 
ATOM     10  C6  UNL     1      -0.095  26.059  20.582  0.00 -0.12    -0.038 A 
ATOM     11  C7  UNL     1       0.028  27.444  20.701  0.00 -0.14    -0.016 A 
ATOM     12  C8  UNL     1       1.775  26.061  19.083  0.00 -0.12    -0.015 A 
ATOM     13  C9  UNL     1       1.939  27.459  19.213  0.00 -0.26     0.086 A 
ATOM     14  C10 UNL     1       1.052  28.141  20.032  0.00 -0.17     0.142 A 
ATOM     43  H9  UNL     1      -0.900  25.564  21.120  0.00 -0.01     0.064 H 
ATOM     44  H10 UNL     1      -0.674  27.972  21.342  0.00 -0.02     0.066 H 
ATOM     45  H11 UNL     1       2.431  25.506  18.413  0.00 -0.08     0.066 H 
ENDROOT
BRANCH 13 17
ATOM     17  N2  UNL     1       2.984  28.184  18.632  0.00 -0.35    -0.306 N 
ATOM     46  H12 UNL     1       3.913  27.943  18.976  0.00 -0.53     0.171 HD
BRANCH 17 18
ATOM     18  C12 UNL     1       2.841  29.047  17.593  0.00 -0.29     0.299 A 
ATOM     19  O4  UNL     1       1.839  29.945  17.564  0.00 -0.16    -0.423 O 
ATOM     20  C13 UNL     1       2.099  30.703  16.470  0.00 -0.25     0.156 A 
ATOM     21  C14 UNL     1       3.215  30.188  15.813  0.00 -0.42     0.076 A 
ATOM     22  N3  UNL     1       3.707  29.143  16.538  0.00 -0.74    -0.201 NA
ATOM     47  H13 UNL     1       3.677  30.536  14.900  0.00 -0.10     0.088 H 
BRANCH 20 23
ATOM     23  C15 UNL     1       1.138  31.747  16.122  0.00 -0.25     0.020 A 
ATOM     24  C16 UNL     1       1.131  32.316  14.849  0.00 -0.29    -0.043 A 
ATOM     25  C17 UNL     1       0.170  33.273  14.520  0.00 -0.26    -0.016 A 
ATOM     26  C18 UNL     1      -0.834  33.615  15.450  0.00 -0.18    -0.054 A 
ATOM     27  C19 UNL     1      -0.853  32.974  16.685  0.00 -0.19    -0.061 A 
ATOM     28  C20 UNL     1       0.111  32.047  17.024  0.00 -0.19    -0.051 A 
ATOM     48  H14 UNL     1       1.915  32.063  14.142  0.00 -0.07     0.064 H 
ATOM     49  H15 UNL     1      -1.593  34.341  15.200  0.00 -0.07     0.063 H 
ATOM     50  H16 UNL     1      -1.619  33.228  17.413  0.00 -0.03     0.062 H 
ATOM     51  H17 UNL     1       0.091  31.593  18.012  0.00 -0.03     0.063 H 
BRANCH 25 29
ATOM     29  C21 UNL     1       0.215  33.908  13.166  0.00 -0.39     0.000 A 
ATOM     30  C22 UNL     1       0.010  35.288  13.001  0.00 -0.41     0.035 A 
ATOM     31  N4  UNL     1       0.081  35.879  11.787  0.00 -0.83    -0.264 NA
ATOM     32  C23 UNL     1       0.336  35.149  10.695  0.00 -0.50     0.027 A 
ATOM     33  C24 UNL     1       0.560  33.774  10.799  0.00 -0.29    -0.043 A 
ATOM     34  C25 UNL     1       0.480  33.134  12.039  0.00 -0.26    -0.051 A 
ATOM     52  H18 UNL     1      -0.202  35.939  13.835  0.00 -0.09     0.085 H 
ATOM     53  H19 UNL     1       0.413  35.673   9.752  0.00 -0.11     0.084 H 
ATOM     54  H20 UNL     1       0.830  33.198   9.922  0.00 -0.16     0.064 H 
ATOM     55  H21 UNL     1       0.648  32.063  12.093  0.00 -0.12     0.063 H 
ENDBRANCH 25 29
ENDBRANCH 20 23
ENDBRANCH 17 18
ENDBRANCH 13 17
BRANCH 9 2
ATOM      1  O1  UNL     1       1.345  23.210  18.581  0.00 -0.06    -0.207 OA
ATOM      2  S1  UNL     1       0.535  23.713  19.622  0.00 -0.27     0.240 S 
ATOM      3  O2  UNL     1      -0.849  23.583  19.296  0.00 -0.07    -0.207 OA
BRANCH 2 4
ATOM      4  N1  UNL     1       0.994  22.944  20.937  0.00 -0.07    -0.211 N 
ATOM     35  H1  UNL     1       0.390  23.100  21.758  0.00 -0.01     0.141 HD
BRANCH 4 5
ATOM      5  C1  UNL     1       2.432  22.842  21.184  0.00 -0.12     0.014 C 
ATOM     36  H2  UNL     1       2.794  21.833  20.963  0.00 -0.02     0.044 H 
ATOM     37  H3  UNL     1       2.946  23.539  20.512  0.00 -0.07     0.044 H 
BRANCH 5 6
ATOM      6  C2  UNL     1       2.821  23.225  22.612  0.00 -0.18    -0.028 C 
ATOM      7  C3  UNL     1       3.879  22.324  23.246  0.00 -0.17    -0.049 C 
ATOM      8  C4  UNL     1       2.433  22.258  23.718  0.00 -0.07    -0.049 C 
ATOM     38  H4  UNL     1       2.866  24.288  22.797  0.00 -0.08     0.032 H 
ATOM     39  H5  UNL     1       4.269  21.495  22.667  0.00 -0.03     0.027 H 
ATOM     40  H6  UNL     1       4.599  22.774  23.915  0.00 -0.06     0.027 H 
ATOM     41  H7  UNL     1       1.823  21.403  23.452  0.00 -0.01     0.027 H 
ATOM     42  H8  UNL     1       2.190  22.679  24.688  0.00 -0.01     0.027 H 
ENDBRANCH 5 6
ENDBRANCH 4 5
ENDBRANCH 2 4
ENDBRANCH 9 2
BRANCH 14 15
ATOM     15  O3  UNL     1       1.220  29.496  20.152  0.00 -0.16    -0.495 OA
ATOM     16  C11 UNL     1       0.171  30.421  20.482  0.00 -0.17     0.078 C 
ATOM     56  H22 UNL     1       0.615  31.410  20.516  0.00 -0.03     0.067 H 
ATOM     57  H23 UNL     1      -0.241  30.185  21.468  0.00 -0.04     0.067 H 
ATOM     58  H24 UNL     1      -0.604  30.394  19.719  0.00 -0.02     0.067 H 
ENDBRANCH 14 15
TORSDOF 9
ENDMDL
MODEL 4
REMARK WATVina v2023.12.13
REMARK WATVINA RESULT:      -7.5
REMARK SCOREN: vdw     :hbond   :elec    :desol   :clash   :torsion  
REMARK SCOREV: -44.42  :-1.49   :-2.19   :0.66    :0.21    :0.39    
REMARK  Name = i.pdb
REMARK  9 active torsions:
REMARK  status: ('A' for Active; 'I' for Inactive)
REMARK    1  A    between atoms: _2  and  _4
REMARK    2  A    between atoms: _2  and  _9
REMARK    3  A    between atoms: _4  and  _5
REMARK    4  A    between atoms: _5  and  _6
REMARK    5  A    between atoms: _13  and  _17
REMARK    6  A    between atoms: _14  and  _15
REMARK    7  A    between atoms: _17  and  _18
REMARK    8  A    between atoms: _20  and  _23
REMARK    9  A    between atoms: _25  and  _29
ROOT
ATOM      9  C5  UNL     1       0.209  28.617  20.803  0.00 -0.19     0.084 A 
ATOM     10  C6  UNL     1      -0.085  27.279  21.036  0.00 -0.13    -0.038 A 
ATOM     11  C7  UNL     1       0.669  26.268  20.438  0.00 -0.15    -0.016 A 
ATOM     12  C8  UNL     1       1.284  28.904  19.928  0.00 -0.20    -0.015 A 
ATOM     13  C9  UNL     1       2.042  27.897  19.286  0.00 -0.22     0.086 A 
ATOM     14  C10 UNL     1       1.719  26.576  19.551  0.00 -0.21     0.142 A 
ATOM     43  H9  UNL     1      -0.888  26.993  21.712  0.00 -0.02     0.064 H 
ATOM     44  H10 UNL     1       0.412  25.235  20.655  0.00 -0.02     0.066 H 
ATOM     45  H11 UNL     1       1.544  29.950  19.770  0.00 -0.07     0.066 H 
ENDROOT
BRANCH 13 17
ATOM     17  N2  UNL     1       3.041  28.151  18.341  0.00 -0.35    -0.306 N 
ATOM     46  H12 UNL     1       3.802  27.473  18.332  0.00 -0.52     0.171 HD
BRANCH 17 18
ATOM     18  C12 UNL     1       2.981  29.126  17.398  0.00 -0.29     0.299 A 
ATOM     19  O4  UNL     1       1.907  29.929  17.289  0.00 -0.17    -0.423 O 
ATOM     20  C13 UNL     1       2.263  30.842  16.352  0.00 -0.25     0.156 A 
ATOM     21  C14 UNL     1       3.524  30.517  15.854  0.00 -0.46     0.076 A 
ATOM     22  N3  UNL     1       3.998  29.434  16.535  0.00 -0.77    -0.201 NA
ATOM     47  H13 UNL     1       4.093  31.020  15.086  0.00 -0.15     0.088 H 
BRANCH 20 23
ATOM     23  C15 UNL     1       1.267  31.834  15.955  0.00 -0.26     0.020 A 
ATOM     24  C16 UNL     1       1.268  32.374  14.670  0.00 -0.29    -0.043 A 
ATOM     25  C17 UNL     1       0.275  33.279  14.294  0.00 -0.28    -0.016 A 
ATOM     26  C18 UNL     1      -0.768  33.596  15.190  0.00 -0.16    -0.054 A 
ATOM     27  C19 UNL     1      -0.792  32.982  16.439  0.00 -0.18    -0.061 A 
ATOM     28  C20 UNL     1       0.204  32.107  16.824  0.00 -0.20    -0.051 A 
ATOM     48  H14 UNL     1       2.082  32.141  13.990  0.00 -0.06     0.064 H 
ATOM     49  H15 UNL     1      -1.551  34.282  14.904  0.00 -0.07     0.063 H 
ATOM     50  H16 UNL     1      -1.587  33.217  17.141  0.00 -0.04     0.062 H 
ATOM     51  H17 UNL     1       0.177  31.674  17.821  0.00 -0.03     0.063 H 
BRANCH 25 29
ATOM     29  C21 UNL     1       0.328  33.886  12.928  0.00 -0.39     0.000 A 
ATOM     30  C22 UNL     1       0.410  33.084  11.777  0.00 -0.43     0.035 A 
ATOM     31  N4  UNL     1       0.425  33.619  10.535  0.00 -0.05    -0.264 NA
ATOM     32  C23 UNL     1       0.379  34.946  10.371  0.00 -0.46     0.027 A 
ATOM     33  C24 UNL     1       0.286  35.794  11.479  0.00 -0.18    -0.043 A 
ATOM     34  C25 UNL     1       0.280  35.269  12.775  0.00 -0.35    -0.051 A 
ATOM     52  H18 UNL     1       0.453  32.007  11.831  0.00 -0.13     0.085 H 
ATOM     53  H19 UNL     1       0.363  35.323   9.358  0.00 -0.06     0.084 H 
ATOM     54  H20 UNL     1       0.183  36.863  11.339  0.00  0.20     0.064 H 
ATOM     55  H21 UNL     1       0.218  35.948  13.619  0.00 -0.10     0.063 H 
ENDBRANCH 25 29
ENDBRANCH 20 23
ENDBRANCH 17 18
ENDBRANCH 13 17
BRANCH 9 2
ATOM      1  O1  UNL     1      -0.762  29.443  22.956  0.00 -0.44    -0.207 OA
ATOM      2  S1  UNL     1      -0.681  29.762  21.584  0.00 -0.36     0.240 S 
ATOM      3  O2  UNL     1      -1.967  29.688  20.970  0.00 -0.04    -0.207 OA
BRANCH 2 4
ATOM      4  N1  UNL     1       0.021  31.189  21.512  0.00 -0.24    -0.211 N 
ATOM     35  H1  UNL     1       1.028  31.162  21.295  0.00  0.03     0.141 HD
BRANCH 4 5
ATOM      5  C1  UNL     1      -0.421  32.200  22.473  0.00 -0.17     0.014 C 
ATOM     36  H2  UNL     1      -0.635  31.744  23.445  0.00 -0.06     0.044 H 
ATOM     37  H3  UNL     1       0.392  32.921  22.611  0.00 -0.12     0.044 H 
BRANCH 5 6
ATOM      6  C2  UNL     1      -1.642  32.985  21.994  0.00 -0.14    -0.028 C 
ATOM      7  C3  UNL     1      -2.107  34.083  22.950  0.00 -0.21    -0.049 C 
ATOM      8  C4  UNL     1      -2.929  32.812  22.784  0.00 -0.08    -0.049 C 
ATOM     38  H4  UNL     1      -1.667  33.177  20.932  0.00 -0.02     0.032 H 
ATOM     39  H5  UNL     1      -1.564  34.226  23.878  0.00 -0.08     0.027 H 
ATOM     40  H6  UNL     1      -2.508  34.992  22.526  0.00 -0.03     0.027 H 
ATOM     41  H7  UNL     1      -2.941  32.076  23.579  0.00 -0.02     0.027 H 
ATOM     42  H8  UNL     1      -3.864  32.874  22.237  0.00 -0.01     0.027 H 
ENDBRANCH 5 6
ENDBRANCH 4 5
ENDBRANCH 2 4
ENDBRANCH 9 2
BRANCH 14 15
ATOM     15  O3  UNL     1       2.458  25.608  18.924  0.00 -0.15    -0.495 OA
ATOM     16  C11 UNL     1       2.458  24.218  19.287  0.00 -0.25     0.078 C 
ATOM     56  H22 UNL     1       3.126  23.708  18.602  0.00 -0.06     0.067 H 
ATOM     57  H23 UNL     1       1.453  23.801  19.176  0.00 -0.03     0.067 H 
ATOM     58  H24 UNL     1       2.819  24.099  20.307  0.00 -0.05     0.067 H 
ENDBRANCH 14 15
TORSDOF 9
ENDMDL
MODEL 5
REMARK WATVina v2023.12.13
REMARK WATVINA RESULT:      -7.3
REMARK SCOREN: vdw     :hbond   :elec    :desol   :clash   :torsion  
REMARK SCOREV: -44.00  :-1.37   :-2.08   :0.62    :0.30    :0.15    
REMARK  Name = i.pdb
REMARK  9 active torsions:
REMARK  status: ('A' for Active; 'I' for Inactive)
REMARK    1  A    between atoms: _2  and  _4
REMARK    2  A    between atoms: _2  and  _9
REMARK    3  A    between atoms: _4  and  _5
REMARK    4  A    between atoms: _5  and  _6
REMARK    5  A    between atoms: _13  and  _17
REMARK    6  A    between atoms: _14  and  _15
REMARK    7  A    between atoms: _17  and  _18
REMARK    8  A    between atoms: _20  and  _23
REMARK    9  A    between atoms: _25  and  _29
ROOT
ATOM      9  C5  UNL     1       0.489  28.903  20.596  0.00 -0.21     0.084 A 
ATOM     10  C6  UNL     1       0.205  27.574  20.884  0.00 -0.14    -0.038 A 
ATOM     11  C7  UNL     1       0.916  26.543  20.270  0.00 -0.15    -0.016 A 
ATOM     12  C8  UNL     1       1.510  29.159  19.649  0.00 -0.23    -0.015 A 
ATOM     13  C9  UNL     1       2.223  28.130  18.991  0.00 -0.32     0.086 A 
ATOM     14  C10 UNL     1       1.912  26.819  19.313  0.00 -0.23     0.142 A 
ATOM     43  H9  UNL     1      -0.557  27.312  21.616  0.00 -0.02     0.064 H 
ATOM     44  H10 UNL     1       0.669  25.517  20.532  0.00 -0.03     0.066 H 
ATOM     45  H11 UNL     1       1.764  30.199  19.446  0.00 -0.07     0.066 H 
ENDROOT
BRANCH 13 17
ATOM     17  N2  UNL     1       3.164  28.351  17.980  0.00 -0.41    -0.306 N 
ATOM     46  H12 UNL     1       3.904  27.653  17.926  0.00 -0.41     0.171 HD
BRANCH 17 18
ATOM     18  C12 UNL     1       3.068  29.322  17.035  0.00 -0.31     0.299 A 
ATOM     19  O4  UNL     1       2.037  30.187  17.024  0.00 -0.17    -0.423 O 
ATOM     20  C13 UNL     1       2.351  31.071  16.045  0.00 -0.28     0.156 A 
ATOM     21  C14 UNL     1       3.534  30.667  15.428  0.00 -0.39     0.076 A 
ATOM     22  N3  UNL     1       4.009  29.562  16.071  0.00 -0.75    -0.201 NA
ATOM     47  H13 UNL     1       4.052  31.130  14.600  0.00 -0.16     0.088 H 
BRANCH 20 23
ATOM     23  C15 UNL     1       1.380  32.118  15.737  0.00 -0.28     0.020 A 
ATOM     24  C16 UNL     1       0.658  32.746  16.751  0.00 -0.21    -0.043 A 
ATOM     25  C17 UNL     1      -0.223  33.781  16.440  0.00 -0.17    -0.016 A 
ATOM     26  C18 UNL     1      -0.336  34.238  15.110  0.00 -0.21    -0.054 A 
ATOM     27  C19 UNL     1       0.454  33.649  14.128  0.00 -0.32    -0.061 A 
ATOM     28  C20 UNL     1       1.308  32.607  14.427  0.00 -0.30    -0.051 A 
ATOM     48  H14 UNL     1       0.735  32.380  17.771  0.00 -0.04     0.064 H 
ATOM     49  H15 UNL     1      -1.002  35.050  14.860  0.00 -0.07     0.063 H 
ATOM     50  H16 UNL     1       0.378  33.988  13.098  0.00 -0.08     0.062 H 
ATOM     51  H17 UNL     1       1.884  32.142  13.630  0.00  0.00     0.063 H 
BRANCH 25 29
ATOM     29  C21 UNL     1      -1.026  34.403  17.539  0.00 -0.16     0.000 A 
ATOM     30  C22 UNL     1      -2.277  34.991  17.285  0.00 -0.19     0.035 A 
ATOM     31  N4  UNL     1      -3.026  35.527  18.274  0.00 -0.09    -0.264 NA
ATOM     32  C23 UNL     1      -2.580  35.525  19.536  0.00 -0.09     0.027 A 
ATOM     33  C24 UNL     1      -1.348  34.944  19.850  0.00 -0.12    -0.043 A 
ATOM     34  C25 UNL     1      -0.547  34.394  18.846  0.00 -0.16    -0.051 A 
ATOM     52  H18 UNL     1      -2.700  35.032  16.293  0.00 -0.01     0.085 H 
ATOM     53  H19 UNL     1      -3.229  35.938  20.295  0.00 -0.01     0.084 H 
ATOM     54  H20 UNL     1      -1.021  34.886  20.882  0.00 -0.04     0.064 H 
ATOM     55  H21 UNL     1       0.411  33.958  19.114  0.00 -0.06     0.063 H 
ENDBRANCH 25 29
ENDBRANCH 20 23
ENDBRANCH 17 18
ENDBRANCH 13 17
BRANCH 9 2
ATOM      1  O1  UNL     1       0.312  31.314  21.241  0.00 -0.09    -0.207 OA
ATOM      2  S1  UNL     1      -0.347  30.076  21.396  0.00 -0.41     0.240 S 
ATOM      3  O2  UNL     1      -0.323  29.656  22.760  0.00 -0.45    -0.207 OA
BRANCH 2 4
ATOM      4  N1  UNL     1      -1.799  30.277  20.777  0.00 -0.08    -0.211 N 
ATOM     35  H1  UNL     1      -2.566  29.890  21.347  0.00 -0.01     0.141 HD
BRANCH 4 5
ATOM      5  C1  UNL     1      -1.928  30.154  19.325  0.00 -0.12     0.014 C 
ATOM     36  H2  UNL     1      -1.186  30.776  18.815  0.00 -0.02     0.044 H 
ATOM     37  H3  UNL     1      -1.739  29.110  19.050  0.00 -0.04     0.044 H 
BRANCH 5 6
ATOM      6  C2  UNL     1      -3.327  30.506  18.818  0.00 -0.22    -0.028 C 
ATOM      7  C3  UNL     1      -3.375  30.993  17.371  0.00 -0.40    -0.049 C 
ATOM      8  C4  UNL     1      -3.605  31.969  18.517  0.00 -0.22    -0.049 C 
ATOM     38  H4  UNL     1      -4.112  29.855  19.174  0.00 -0.06     0.032 H 
ATOM     39  H5  UNL     1      -2.447  31.062  16.816  0.00 -0.09     0.027 H 
ATOM     40  H6  UNL     1      -4.232  30.722  16.770  0.00 -0.14     0.027 H 
ATOM     41  H7  UNL     1      -2.838  32.693  18.764  0.00 -0.02     0.027 H 
ATOM     42  H8  UNL     1      -4.614  32.331  18.686  0.00 -0.06     0.027 H 
ENDBRANCH 5 6
ENDBRANCH 4 5
ENDBRANCH 2 4
ENDBRANCH 9 2
BRANCH 14 15
ATOM     15  O3  UNL     1       2.607  25.829  18.670  0.00 -0.18    -0.495 OA
ATOM     16  C11 UNL     1       2.826  24.511  19.197  0.00 -0.26     0.078 C 
ATOM     56  H22 UNL     1       3.393  23.959  18.455  0.00 -0.05     0.067 H 
ATOM     57  H23 UNL     1       1.869  24.006  19.357  0.00 -0.03     0.067 H 
ATOM     58  H24 UNL     1       3.395  24.569  20.123  0.00 -0.12     0.067 H 
ENDBRANCH 14 15
TORSDOF 9
ENDMDL
MODEL 6
REMARK WATVina v2023.12.13
REMARK WATVINA RESULT:      -7.2
REMARK SCOREN: vdw     :hbond   :elec    :desol   :clash   :torsion  
REMARK SCOREV: -40.03  :-0.91   :-4.11   :0.29    :0.37    :0.28    
REMARK  Name = i.pdb
REMARK  9 active torsions:
REMARK  status: ('A' for Active; 'I' for Inactive)
REMARK    1  A    between atoms: _2  and  _4
REMARK    2  A    between atoms: _2  and  _9
REMARK    3  A    between atoms: _4  and  _5
REMARK    4  A    between atoms: _5  and  _6
REMARK    5  A    between atoms: _13  and  _17
REMARK    6  A    between atoms: _14  and  _15
REMARK    7  A    between atoms: _17  and  _18
REMARK    8  A    between atoms: _20  and  _23
REMARK    9  A    between atoms: _25  and  _29
ROOT
ATOM      9  C5  UNL     1       1.728  26.339  19.506  0.00 -0.25     0.084 A 
ATOM     10  C6  UNL     1       2.467  26.315  18.330  0.00 -0.17    -0.038 A 
ATOM     11  C7  UNL     1       2.710  27.488  17.616  0.00 -0.27    -0.016 A 
ATOM     12  C8  UNL     1       1.224  27.592  19.933  0.00 -0.12    -0.015 A 
ATOM     13  C9  UNL     1       1.431  28.789  19.209  0.00 -0.28     0.086 A 
ATOM     14  C10 UNL     1       2.180  28.721  18.044  0.00 -0.29     0.142 A 
ATOM     43  H9  UNL     1       2.896  25.386  17.959  0.00 -0.07     0.064 H 
ATOM     44  H10 UNL     1       3.302  27.426  16.707  0.00 -0.10     0.066 H 
ATOM     45  H11 UNL     1       0.676  27.624  20.873  0.00 -0.05     0.066 H 
ENDROOT
BRANCH 13 17
ATOM     17  N2  UNL     1       0.863  30.020  19.551  0.00 -0.23    -0.306 N 
ATOM     46  H12 UNL     1       1.316  30.498  20.328  0.00 -0.06     0.171 HD
BRANCH 17 18
ATOM     18  C12 UNL     1      -0.124  30.636  18.850  0.00 -0.14     0.299 A 
ATOM     19  O4  UNL     1       0.093  31.803  18.217  0.00 -0.10    -0.423 O 
ATOM     20  C13 UNL     1      -1.053  32.031  17.529  0.00 -0.15     0.156 A 
ATOM     21  C14 UNL     1      -1.973  31.028  17.831  0.00 -0.24     0.076 A 
ATOM     22  N3  UNL     1      -1.377  30.121  18.657  0.00 -0.09    -0.201 NA
ATOM     47  H13 UNL     1      -2.987  30.917  17.475  0.00 -0.06     0.088 H 
BRANCH 20 23
ATOM     23  C15 UNL     1      -1.160  33.279  16.777  0.00 -0.19     0.020 A 
ATOM     24  C16 UNL     1      -0.732  33.354  15.452  0.00 -0.11    -0.043 A 
ATOM     25  C17 UNL     1      -0.893  34.540  14.735  0.00 -0.29    -0.016 A 
ATOM     26  C18 UNL     1      -1.548  35.640  15.327  0.00 -0.23    -0.054 A 
ATOM     27  C19 UNL     1      -2.037  35.514  16.623  0.00 -0.21    -0.061 A 
ATOM     28  C20 UNL     1      -1.856  34.351  17.345  0.00 -0.17    -0.051 A 
ATOM     48  H14 UNL     1      -0.213  32.511  15.006  0.00  0.03     0.064 H 
ATOM     49  H15 UNL     1      -1.693  36.557  14.775  0.00 -0.08     0.063 H 
ATOM     50  H16 UNL     1      -2.543  36.353  17.094  0.00 -0.05     0.062 H 
ATOM     51  H17 UNL     1      -2.217  34.298  18.370  0.00 -0.02     0.063 H 
BRANCH 25 29
ATOM     29  C21 UNL     1      -0.377  34.613  13.332  0.00 -0.34     0.000 A 
ATOM     30  C22 UNL     1      -0.038  35.843  12.743  0.00 -0.14     0.035 A 
ATOM     31  N4  UNL     1       0.459  35.919  11.489  0.00 -0.79    -0.264 NA
ATOM     32  C23 UNL     1       0.627  34.809  10.761  0.00 -0.50     0.027 A 
ATOM     33  C24 UNL     1       0.318  33.556  11.298  0.00 -0.34    -0.043 A 
ATOM     34  C25 UNL     1      -0.209  33.449  12.588  0.00 -0.31    -0.051 A 
ATOM     52  H18 UNL     1      -0.149  36.779  13.268  0.00  0.01     0.085 H 
ATOM     53  H19 UNL     1       1.057  34.920   9.775  0.00 -0.09     0.084 H 
ATOM     54  H20 UNL     1       0.518  32.656  10.729  0.00 -0.18     0.064 H 
ATOM     55  H21 UNL     1      -0.451  32.465  12.979  0.00  0.24     0.063 H 
ENDBRANCH 25 29
ENDBRANCH 20 23
ENDBRANCH 17 18
ENDBRANCH 13 17
BRANCH 9 2
ATOM      1  O1  UNL     1       0.279  24.359  19.996  0.00 -0.07    -0.207 OA
ATOM      2  S1  UNL     1       1.524  24.929  20.334  0.00 -0.44     0.240 S 
ATOM      3  O2  UNL     1       1.546  25.321  21.707  0.00 -0.12    -0.207 OA
BRANCH 2 4
ATOM      4  N1  UNL     1       2.620  23.852  19.921  0.00 -0.22    -0.211 N 
ATOM     35  H1  UNL     1       3.578  24.224  19.838  0.00 -0.39     0.141 HD
BRANCH 4 5
ATOM      5  C1  UNL     1       2.221  22.831  18.952  0.00 -0.17     0.014 C 
ATOM     36  H2  UNL     1       1.267  22.376  19.238  0.00 -0.02     0.044 H 
ATOM     37  H3  UNL     1       2.085  23.316  17.979  0.00 -0.06     0.044 H 
BRANCH 5 6
ATOM      6  C2  UNL     1       3.274  21.740  18.766  0.00 -0.17    -0.028 C 
ATOM      7  C3  UNL     1       2.714  20.378  18.359  0.00 -0.15    -0.049 C 
ATOM      8  C4  UNL     1       3.265  20.592  19.763  0.00 -0.10    -0.049 C 
ATOM     38  H4  UNL     1       4.199  22.076  18.319  0.00 -0.06     0.032 H 
ATOM     39  H5  UNL     1       1.643  20.273  18.238  0.00 -0.04     0.027 H 
ATOM     40  H6  UNL     1       3.298  19.767  17.685  0.00 -0.04     0.027 H 
ATOM     41  H7  UNL     1       2.580  20.654  20.601  0.00 -0.01     0.027 H 
ATOM     42  H8  UNL     1       4.218  20.140  20.014  0.00 -0.02     0.027 H 
ENDBRANCH 5 6
ENDBRANCH 4 5
ENDBRANCH 2 4
ENDBRANCH 9 2
BRANCH 14 15
ATOM     15  O3  UNL     1       2.374  29.885  17.350  0.00 -0.15    -0.495 OA
ATOM     16  C11 UNL     1       3.361  30.067  16.322  0.00 -0.35     0.078 C 
ATOM     56  H22 UNL     1       3.259  31.083  15.956  0.00 -0.08     0.067 H 
ATOM     57  H23 UNL     1       3.175  29.375  15.496  0.00 -0.10     0.067 H 
ATOM     58  H24 UNL     1       4.359  29.925  16.733  0.00 -0.09     0.067 H 
ENDBRANCH 14 15
TORSDOF 9
ENDMDL
MODEL 7
REMARK WATVina v2023.12.13
REMARK WATVINA RESULT:      -6.9
REMARK SCOREN: vdw     :hbond   :elec    :desol   :clash   :torsion  
REMARK SCOREV: -44.32  :-0.55   :-3.43   :0.16    :0.14    :0.96    
REMARK  Name = i.pdb
REMARK  9 active torsions:
REMARK  status: ('A' for Active; 'I' for Inactive)
REMARK    1  A    between atoms: _2  and  _4
REMARK    2  A    between atoms: _2  and  _9
REMARK    3  A    between atoms: _4  and  _5
REMARK    4  A    between atoms: _5  and  _6
REMARK    5  A    between atoms: _13  and  _17
REMARK    6  A    between atoms: _14  and  _15
REMARK    7  A    between atoms: _17  and  _18
REMARK    8  A    between atoms: _20  and  _23
REMARK    9  A    between atoms: _25  and  _29
ROOT
ATOM      9  C5  UNL     1      -0.878  34.563  16.627  0.00 -0.20     0.084 A 
ATOM     10  C6  UNL     1      -1.364  35.447  15.672  0.00 -0.18    -0.038 A 
ATOM     11  C7  UNL     1      -1.044  35.288  14.323  0.00 -0.12    -0.016 A 
ATOM     12  C8  UNL     1      -0.038  33.516  16.176  0.00 -0.20    -0.015 A 
ATOM     13  C9  UNL     1       0.326  33.353  14.820  0.00 -0.32     0.086 A 
ATOM     14  C10 UNL     1      -0.187  34.253  13.899  0.00 -0.32     0.142 A 
ATOM     43  H9  UNL     1      -2.028  36.262  15.952  0.00 -0.08     0.064 H 
ATOM     44  H10 UNL     1      -1.454  35.995  13.607  0.00  0.23     0.066 H 
ATOM     45  H11 UNL     1       0.317  32.798  16.915  0.00 -0.04     0.066 H 
ENDROOT
BRANCH 13 17
ATOM     17  N2  UNL     1       1.232  32.392  14.361  0.00 -0.36    -0.306 N 
ATOM     46  H12 UNL     1       1.380  32.391  13.353  0.00 -0.10     0.171 HD
BRANCH 17 18
ATOM     18  C12 UNL     1       1.983  31.595  15.164  0.00 -0.24     0.299 A 
ATOM     19  O4  UNL     1       1.413  30.767  16.058  0.00 -0.18    -0.423 O 
ATOM     20  C13 UNL     1       2.448  30.052  16.562  0.00 -0.29     0.156 A 
ATOM     21  C14 UNL     1       3.640  30.526  16.015  0.00 -0.44     0.076 A 
ATOM     22  N3  UNL     1       3.347  31.497  15.103  0.00 -0.12    -0.201 NA
ATOM     47  H13 UNL     1       4.649  30.195  16.214  0.00 -0.11     0.088 H 
BRANCH 20 23
ATOM     23  C15 UNL     1       2.159  29.093  17.626  0.00 -0.28     0.020 A 
ATOM     24  C16 UNL     1       1.206  29.375  18.604  0.00 -0.25    -0.043 A 
ATOM     25  C17 UNL     1       0.907  28.423  19.579  0.00 -0.21    -0.016 A 
ATOM     26  C18 UNL     1       1.517  27.152  19.536  0.00 -0.16    -0.054 A 
ATOM     27  C19 UNL     1       2.404  26.866  18.503  0.00 -0.24    -0.061 A 
ATOM     28  C20 UNL     1       2.723  27.814  17.552  0.00 -0.33    -0.051 A 
ATOM     48  H14 UNL     1       0.752  30.360  18.643  0.00 -0.04     0.064 H 
ATOM     49  H15 UNL     1       1.279  26.401  20.275  0.00 -0.05     0.063 H 
ATOM     50  H16 UNL     1       2.884  25.892  18.457  0.00 -0.10     0.062 H 
ATOM     51  H17 UNL     1       3.450  27.572  16.780  0.00 -0.12     0.063 H 
BRANCH 25 29
ATOM     29  C21 UNL     1      -0.080  28.769  20.649  0.00 -0.15     0.000 A 
ATOM     30  C22 UNL     1       0.314  29.460  21.807  0.00 -0.27     0.035 A 
ATOM     31  N4  UNL     1      -0.574  29.807  22.766  0.00 -0.65    -0.264 NA
ATOM     32  C23 UNL     1      -1.865  29.481  22.640  0.00 -0.10     0.027 A 
ATOM     33  C24 UNL     1      -2.317  28.803  21.505  0.00 -0.06    -0.043 A 
ATOM     34  C25 UNL     1      -1.420  28.421  20.503  0.00 -0.11    -0.051 A 
ATOM     52  H18 UNL     1       1.338  29.753  21.979  0.00 -0.10     0.085 H 
ATOM     53  H19 UNL     1      -2.540  29.808  23.419  0.00 -0.02     0.084 H 
ATOM     54  H20 UNL     1      -3.374  28.600  21.376  0.00 -0.01     0.064 H 
ATOM     55  H21 UNL     1      -1.793  27.886  19.636  0.00 -0.05     0.063 H 
ENDBRANCH 25 29
ENDBRANCH 20 23
ENDBRANCH 17 18
ENDBRANCH 13 17
BRANCH 9 2
ATOM      1  O1  UNL     1      -2.640  35.314  18.236  0.00 -0.08    -0.207 OA
ATOM      2  S1  UNL     1      -1.339  34.771  18.195  0.00 -0.36     0.240 S 
ATOM      3  O2  UNL     1      -0.387  35.695  18.722  0.00 -0.16    -0.207 OA
BRANCH 2 4
ATOM      4  N1  UNL     1      -1.425  33.379  18.962  0.00 -0.10    -0.211 N 
ATOM     35  H1  UNL     1      -0.621  32.754  18.808  0.00 -0.02     0.141 HD
BRANCH 4 5
ATOM      5  C1  UNL     1      -2.743  32.751  19.058  0.00 -0.10     0.014 C 
ATOM     36  H2  UNL     1      -2.762  32.009  19.863  0.00 -0.01     0.044 H 
ATOM     37  H3  UNL     1      -3.477  33.528  19.299  0.00 -0.02     0.044 H 
BRANCH 5 6
ATOM      6  C2  UNL     1      -3.190  32.099  17.750  0.00 -0.29    -0.028 C 
ATOM      7  C3  UNL     1      -4.119  30.898  17.923  0.00 -0.38    -0.049 C 
ATOM      8  C4  UNL     1      -2.680  30.696  17.466  0.00 -0.33    -0.049 C 
ATOM     38  H4  UNL     1      -3.382  32.792  16.943  0.00 -0.08     0.032 H 
ATOM     39  H5  UNL     1      -4.387  30.591  18.926  0.00 -0.06     0.027 H 
ATOM     40  H6  UNL     1      -4.898  30.747  17.189  0.00 -0.12     0.027 H 
ATOM     41  H7  UNL     1      -1.957  30.271  18.152  0.00 -0.05     0.027 H 
ATOM     42  H8  UNL     1      -2.504  30.428  16.430  0.00 -0.07     0.027 H 
ENDBRANCH 5 6
ENDBRANCH 4 5
ENDBRANCH 2 4
ENDBRANCH 9 2
BRANCH 14 15
ATOM     15  O3  UNL     1       0.172  34.089  12.588  0.00 -0.26    -0.495 OA
ATOM     16  C11 UNL     1       0.401  35.164  11.663  0.00 -0.43     0.078 C 
ATOM     56  H22 UNL     1       0.681  34.717  10.715  0.00 -0.12     0.067 H 
ATOM     57  H23 UNL     1       1.225  35.792  12.015  0.00 -0.10     0.067 H 
ATOM     58  H24 UNL     1      -0.508  35.749  11.538  0.00 -0.07     0.067 H 
ENDBRANCH 14 15
TORSDOF 9
ENDMDL
MODEL 8
REMARK WATVina v2023.12.13
REMARK WATVINA RESULT:      -6.8
REMARK SCOREN: vdw     :hbond   :elec    :desol   :clash   :torsion  
REMARK SCOREV: -39.18  :-0.75   :-3.71   :0.22    :0.31    :0.41    
REMARK  Name = i.pdb
REMARK  9 active torsions:
REMARK  status: ('A' for Active; 'I' for Inactive)
REMARK    1  A    between atoms: _2  and  _4
REMARK    2  A    between atoms: _2  and  _9
REMARK    3  A    between atoms: _4  and  _5
REMARK    4  A    between atoms: _5  and  _6
REMARK    5  A    between atoms: _13  and  _17
REMARK    6  A    between atoms: _14  and  _15
REMARK    7  A    between atoms: _17  and  _18
REMARK    8  A    between atoms: _20  and  _23
REMARK    9  A    between atoms: _25  and  _29
ROOT
ATOM      9  C5  UNL     1       0.501  26.820  21.688  0.00 -0.11     0.084 A 
ATOM     10  C6  UNL     1       1.065  26.055  20.674  0.00 -0.13    -0.038 A 
ATOM     11  C7  UNL     1       1.523  26.654  19.500  0.00 -0.15    -0.016 A 
ATOM     12  C8  UNL     1       0.398  28.216  21.470  0.00 -0.16    -0.015 A 
ATOM     13  C9  UNL     1       0.827  28.840  20.275  0.00 -0.23     0.086 A 
ATOM     14  C10 UNL     1       1.389  28.040  19.293  0.00 -0.21     0.142 A 
ATOM     43  H9  UNL     1       1.187  24.980  20.788  0.00 -0.03     0.064 H 
ATOM     44  H10 UNL     1       1.967  26.020  18.736  0.00 -0.07     0.066 H 
ATOM     45  H11 UNL     1      -0.009  28.826  22.275  0.00 -0.06     0.066 H 
ENDROOT
BRANCH 13 17
ATOM     17  N2  UNL     1       0.646  30.197  19.992  0.00 -0.22    -0.306 N 
ATOM     46  H12 UNL     1       1.308  30.821  20.452  0.00 -0.01     0.171 HD
BRANCH 17 18
ATOM     18  C12 UNL     1      -0.233  30.684  19.079  0.00 -0.13     0.299 A 
ATOM     19  O4  UNL     1      -0.074  31.906  18.539  0.00 -0.09    -0.423 O 
ATOM     20  C13 UNL     1      -1.043  31.985  17.593  0.00 -0.15     0.156 A 
ATOM     21  C14 UNL     1      -1.823  30.830  17.642  0.00 -0.26     0.076 A 
ATOM     22  N3  UNL     1      -1.296  29.985  18.574  0.00 -0.09    -0.201 NA
ATOM     47  H13 UNL     1      -2.687  30.577  17.045  0.00 -0.09     0.088 H 
BRANCH 20 23
ATOM     23  C15 UNL     1      -1.178  33.240  16.859  0.00 -0.19     0.020 A 
ATOM     24  C16 UNL     1      -0.753  33.343  15.534  0.00 -0.12    -0.043 A 
ATOM     25  C17 UNL     1      -0.941  34.535  14.834  0.00 -0.29    -0.016 A 
ATOM     26  C18 UNL     1      -1.619  35.612  15.442  0.00 -0.25    -0.054 A 
ATOM     27  C19 UNL     1      -2.105  35.457  16.737  0.00 -0.19    -0.061 A 
ATOM     28  C20 UNL     1      -1.898  34.289  17.442  0.00 -0.16    -0.051 A 
ATOM     48  H14 UNL     1      -0.216  32.518  15.077  0.00  0.02     0.064 H 
ATOM     49  H15 UNL     1      -1.785  36.533  14.903  0.00 -0.08     0.063 H 
ATOM     50  H16 UNL     1      -2.628  36.278  17.219  0.00 -0.05     0.062 H 
ATOM     51  H17 UNL     1      -2.256  34.213  18.466  0.00 -0.02     0.063 H 
BRANCH 25 29
ATOM     29  C21 UNL     1      -0.428  34.639  13.432  0.00 -0.33     0.000 A 
ATOM     30  C22 UNL     1      -0.085  35.881  12.872  0.00 -0.09     0.035 A 
ATOM     31  N4  UNL     1       0.410  35.985  11.618  0.00 -0.81    -0.264 NA
ATOM     32  C23 UNL     1       0.571  34.892  10.864  0.00 -0.52     0.027 A 
ATOM     33  C24 UNL     1       0.257  33.628  11.371  0.00 -0.33    -0.043 A 
ATOM     34  C25 UNL     1      -0.267  33.492  12.660  0.00 -0.30    -0.051 A 
ATOM     52  H18 UNL     1      -0.190  36.805  13.419  0.00 -0.00     0.085 H 
ATOM     53  H19 UNL     1       0.999  35.024   9.879  0.00 -0.10     0.084 H 
ATOM     54  H20 UNL     1       0.451  32.740  10.781  0.00 -0.18     0.064 H 
ATOM     55  H21 UNL     1      -0.513  32.501  13.028  0.00  0.24     0.063 H 
ENDBRANCH 25 29
ENDBRANCH 20 23
ENDBRANCH 17 18
ENDBRANCH 13 17
BRANCH 9 2
ATOM      1  O1  UNL     1      -1.164  25.351  22.841  0.00 -0.02    -0.207 OA
ATOM      2  S1  UNL     1       0.032  26.063  23.073  0.00 -0.31     0.240 S 
ATOM      3  O2  UNL     1      -0.184  27.127  24.001  0.00 -0.24    -0.207 OA
BRANCH 2 4
ATOM      4  N1  UNL     1       1.101  24.976  23.530  0.00 -0.16    -0.211 N 
ATOM     35  H1  UNL     1       1.171  24.156  22.910  0.00 -0.02     0.141 HD
BRANCH 4 5
ATOM      5  C1  UNL     1       1.233  24.732  24.967  0.00 -0.17     0.014 C 
ATOM     36  H2  UNL     1       1.030  25.645  25.536  0.00 -0.05     0.044 H 
ATOM     37  H3  UNL     1       0.489  23.982  25.257  0.00 -0.02     0.044 H 
BRANCH 5 6
ATOM      6  C2  UNL     1       2.604  24.179  25.355  0.00 -0.20    -0.028 C 
ATOM      7  C3  UNL     1       2.648  23.487  26.717  0.00 -0.20    -0.049 C 
ATOM      8  C4  UNL     1       3.312  24.844  26.524  0.00 -0.35    -0.049 C 
ATOM     38  H4  UNL     1       3.167  23.753  24.538  0.00 -0.05     0.032 H 
ATOM     39  H5  UNL     1       1.738  23.439  27.303  0.00 -0.04     0.027 H 
ATOM     40  H6  UNL     1       3.296  22.630  26.832  0.00 -0.03     0.027 H 
ATOM     41  H7  UNL     1       2.857  25.727  26.957  0.00 -0.12     0.027 H 
ATOM     42  H8  UNL     1       4.395  24.885  26.495  0.00 -0.10     0.027 H 
ENDBRANCH 5 6
ENDBRANCH 4 5
ENDBRANCH 2 4
ENDBRANCH 9 2
BRANCH 14 15
ATOM     15  O3  UNL     1       1.800  28.653  18.139  0.00 -0.17    -0.495 OA
ATOM     16  C11 UNL     1       2.897  28.209  17.325  0.00 -0.38     0.078 C 
ATOM     56  H22 UNL     1       2.965  28.887  16.481  0.00 -0.10     0.067 H 
ATOM     57  H23 UNL     1       2.703  27.199  16.952  0.00 -0.06     0.067 H 
ATOM     58  H24 UNL     1       3.823  28.242  17.896  0.00 -0.15     0.067 H 
ENDBRANCH 14 15
TORSDOF 9
ENDMDL
MODEL 9
REMARK WATVina v2023.12.13
REMARK WATVINA RESULT:      -6.7
REMARK SCOREN: vdw     :hbond   :elec    :desol   :clash   :torsion  
REMARK SCOREV: -37.56  :-0.63   :-4.18   :0.17    :0.30    :0.30    
REMARK  Name = i.pdb
REMARK  9 active torsions:
REMARK  status: ('A' for Active; 'I' for Inactive)
REMARK    1  A    between atoms: _2  and  _4
REMARK    2  A    between atoms: _2  and  _9
REMARK    3  A    between atoms: _4  and  _5
REMARK    4  A    between atoms: _5  and  _6
REMARK    5  A    between atoms: _13  and  _17
REMARK    6  A    between atoms: _14  and  _15
REMARK    7  A    between atoms: _17  and  _18
REMARK    8  A    between atoms: _20  and  _23
REMARK    9  A    between atoms: _25  and  _29
ROOT
ATOM      9  C5  UNL     1       1.549  26.315  19.644  0.00 -0.23     0.084 A 
ATOM     10  C6  UNL     1       2.272  26.234  18.461  0.00 -0.15    -0.038 A 
ATOM     11  C7  UNL     1       2.538  27.379  17.707  0.00 -0.25    -0.016 A 
ATOM     12  C8  UNL     1       1.083  27.594  20.036  0.00 -0.13    -0.015 A 
ATOM     13  C9  UNL     1       1.313  28.762  19.273  0.00 -0.27     0.086 A 
ATOM     14  C10 UNL     1       2.045  28.637  18.103  0.00 -0.28     0.142 A 
ATOM     43  H9  UNL     1       2.672  25.283  18.114  0.00 -0.08     0.064 H 
ATOM     44  H10 UNL     1       3.116  27.273  16.793  0.00 -0.10     0.066 H 
ATOM     45  H11 UNL     1       0.548  27.669  20.981  0.00 -0.04     0.066 H 
ENDROOT
BRANCH 13 17
ATOM     17  N2  UNL     1       0.781  30.017  19.583  0.00 -0.22    -0.306 N 
ATOM     46  H12 UNL     1       1.259  30.509  20.338  0.00 -0.06     0.171 HD
BRANCH 17 18
ATOM     18  C12 UNL     1      -0.200  30.635  18.877  0.00 -0.14     0.299 A 
ATOM     19  O4  UNL     1       0.014  31.815  18.267  0.00 -0.10    -0.423 O 
ATOM     20  C13 UNL     1      -1.124  32.044  17.566  0.00 -0.15     0.156 A 
ATOM     21  C14 UNL     1      -2.038  31.026  17.837  0.00 -0.24     0.076 A 
ATOM     22  N3  UNL     1      -1.445  30.111  18.656  0.00 -0.09    -0.201 NA
ATOM     47  H13 UNL     1      -3.045  30.911  17.463  0.00 -0.07     0.088 H 
BRANCH 20 23
ATOM     23  C15 UNL     1      -1.231  33.303  16.834  0.00 -0.19     0.020 A 
ATOM     24  C16 UNL     1      -0.798  33.400  15.512  0.00 -0.13    -0.043 A 
ATOM     25  C17 UNL     1      -0.960  34.597  14.813  0.00 -0.29    -0.016 A 
ATOM     26  C18 UNL     1      -1.621  35.685  15.419  0.00 -0.23    -0.054 A 
ATOM     27  C19 UNL     1      -2.115  35.537  16.712  0.00 -0.20    -0.061 A 
ATOM     28  C20 UNL     1      -1.934  34.364  17.415  0.00 -0.17    -0.051 A 
ATOM     48  H14 UNL     1      -0.274  32.566  15.055  0.00  0.02     0.064 H 
ATOM     49  H15 UNL     1      -1.767  36.611  14.882  0.00 -0.07     0.063 H 
ATOM     50  H16 UNL     1      -2.626  36.366  17.193  0.00 -0.05     0.062 H 
ATOM     51  H17 UNL     1      -2.299  34.293  18.438  0.00 -0.02     0.063 H 
BRANCH 25 29
ATOM     29  C21 UNL     1      -0.439  34.694  13.414  0.00 -0.31     0.000 A 
ATOM     30  C22 UNL     1      -0.098  35.934  12.847  0.00 -0.07     0.035 A 
ATOM     31  N4  UNL     1       0.405  36.032  11.596  0.00 -0.79    -0.264 NA
ATOM     32  C23 UNL     1       0.576  34.935  10.850  0.00 -0.52     0.027 A 
ATOM     33  C24 UNL     1       0.265  33.673  11.364  0.00 -0.33    -0.043 A 
ATOM     34  C25 UNL     1      -0.267  33.543  12.650  0.00 -0.32    -0.051 A 
ATOM     52  H18 UNL     1      -0.211  36.861  13.388  0.00  0.01     0.085 H 
ATOM     53  H19 UNL     1       1.010  35.063   9.868  0.00 -0.10     0.084 H 
ATOM     54  H20 UNL     1       0.467  32.782  10.781  0.00 -0.18     0.064 H 
ATOM     55  H21 UNL     1      -0.511  32.553  13.023  0.00  0.24     0.063 H 
ENDBRANCH 25 29
ENDBRANCH 20 23
ENDBRANCH 17 18
ENDBRANCH 13 17
BRANCH 9 2
ATOM      1  O1  UNL     1       0.304  25.150  21.475  0.00 -0.05    -0.207 OA
ATOM      2  S1  UNL     1       1.318  24.938  20.517  0.00 -0.40     0.240 S 
ATOM      3  O2  UNL     1       2.576  24.709  21.154  0.00 -0.10    -0.207 OA
BRANCH 2 4
ATOM      4  N1  UNL     1       0.802  23.747  19.596  0.00 -0.19    -0.211 N 
ATOM     35  H1  UNL     1       1.226  23.716  18.658  0.00 -0.06     0.141 HD
BRANCH 4 5
ATOM      5  C1  UNL     1      -0.614  23.393  19.694  0.00 -0.09     0.014 C 
ATOM     36  H2  UNL     1      -0.826  22.896  20.646  0.00 -0.01     0.044 H 
ATOM     37  H3  UNL     1      -1.202  24.318  19.659  0.00 -0.03     0.044 H 
BRANCH 5 6
ATOM      6  C2  UNL     1      -1.091  22.514  18.539  0.00 -0.18    -0.028 C 
ATOM      7  C3  UNL     1      -2.427  21.813  18.782  0.00 -0.15    -0.049 C 
ATOM      8  C4  UNL     1      -1.131  21.014  18.781  0.00 -0.14    -0.049 C 
ATOM     38  H4  UNL     1      -0.884  22.909  17.555  0.00 -0.05     0.032 H 
ATOM     39  H5  UNL     1      -2.932  21.973  19.728  0.00 -0.01     0.027 H 
ATOM     40  H6  UNL     1      -3.093  21.679  17.941  0.00 -0.04     0.027 H 
ATOM     41  H7  UNL     1      -0.733  20.641  19.718  0.00 -0.01     0.027 H 
ATOM     42  H8  UNL     1      -0.929  20.365  17.936  0.00 -0.01     0.027 H 
ENDBRANCH 5 6
ENDBRANCH 4 5
ENDBRANCH 2 4
ENDBRANCH 9 2
BRANCH 14 15
ATOM     15  O3  UNL     1       2.261  29.774  17.370  0.00 -0.17    -0.495 OA
ATOM     16  C11 UNL     1       3.252  29.903  16.337  0.00 -0.37     0.078 C 
ATOM     56  H22 UNL     1       3.169  30.908  15.938  0.00 -0.08     0.067 H 
ATOM     57  H23 UNL     1       3.053  29.187  15.535  0.00 -0.11     0.067 H 
ATOM     58  H24 UNL     1       4.246  29.756  16.754  0.00 -0.07     0.067 H 
ENDBRANCH 14 15
TORSDOF 9
ENDMDL
MODEL 10
REMARK WATVina v2023.12.13
REMARK WATVINA RESULT:      -6.4
REMARK SCOREN: vdw     :hbond   :elec    :desol   :clash   :torsion  
REMARK SCOREV: -38.96  :-0.91   :-3.63   :0.51    :0.36    :0.69    
REMARK  Name = i.pdb
REMARK  9 active torsions:
REMARK  status: ('A' for Active; 'I' for Inactive)
REMARK    1  A    between atoms: _2  and  _4
REMARK    2  A    between atoms: _2  and  _9
REMARK    3  A    between atoms: _4  and  _5
REMARK    4  A    between atoms: _5  and  _6
REMARK    5  A    between atoms: _13  and  _17
REMARK    6  A    between atoms: _14  and  _15
REMARK    7  A    between atoms: _17  and  _18
REMARK    8  A    between atoms: _20  and  _23
REMARK    9  A    between atoms: _25  and  _29
ROOT
ATOM      9  C5  UNL     1      -1.209  30.662  22.322  0.00 -0.16     0.084 A 
ATOM     10  C6  UNL     1      -1.707  29.428  22.722  0.00 -0.06    -0.038 A 
ATOM     11  C7  UNL     1      -1.123  28.243  22.272  0.00 -0.10    -0.016 A 
ATOM     12  C8  UNL     1      -0.106  30.662  21.434  0.00 -0.18    -0.015 A 
ATOM     13  C9  UNL     1       0.482  29.474  20.940  0.00 -0.24     0.086 A 
ATOM     14  C10 UNL     1      -0.042  28.265  21.370  0.00 -0.16     0.142 A 
ATOM     43  H9  UNL     1      -2.542  29.362  23.416  0.00 -0.02     0.064 H 
ATOM     44  H10 UNL     1      -1.537  27.300  22.618  0.00 -0.02     0.066 H 
ATOM     45  H11 UNL     1       0.313  31.625  21.146  0.00 -0.05     0.066 H 
ENDROOT
BRANCH 13 17
ATOM     17  N2  UNL     1       1.504  29.444  19.987  0.00 -0.28    -0.306 N 
ATOM     46  H12 UNL     1       2.341  28.938  20.274  0.00 -0.01     0.171 HD
BRANCH 17 18
ATOM     18  C12 UNL     1       1.390  29.913  18.718  0.00 -0.20     0.299 A 
ATOM     19  O4  UNL     1       0.653  31.003  18.439  0.00 -0.12    -0.423 O 
ATOM     20  C13 UNL     1       0.885  31.240  17.125  0.00 -0.20     0.156 A 
ATOM     21  C14 UNL     1       1.700  30.229  16.616  0.00 -0.21     0.076 A 
ATOM     22  N3  UNL     1       2.044  29.391  17.635  0.00 -0.16    -0.201 NA
ATOM     47  H13 UNL     1       2.058  30.100  15.605  0.00 -0.08     0.088 H 
BRANCH 20 23
ATOM     23  C15 UNL     1       0.164  32.343  16.493  0.00 -0.20     0.020 A 
ATOM     24  C16 UNL     1       0.400  32.682  15.161  0.00 -0.18    -0.043 A 
ATOM     25  C17 UNL     1      -0.339  33.703  14.562  0.00 -0.27    -0.016 A 
ATOM     26  C18 UNL     1      -1.369  34.345  15.280  0.00 -0.17    -0.054 A 
ATOM     27  C19 UNL     1      -1.639  33.933  16.582  0.00 -0.19    -0.061 A 
ATOM     28  C20 UNL     1      -0.893  32.942  17.187  0.00 -0.17    -0.051 A 
ATOM     48  H14 UNL     1       1.205  32.198  14.618  0.00 -0.07     0.064 H 
ATOM     49  H15 UNL     1      -1.959  35.124  14.821  0.00 -0.09     0.063 H 
ATOM     50  H16 UNL     1      -2.429  34.418  17.149  0.00 -0.05     0.062 H 
ATOM     51  H17 UNL     1      -1.105  32.670  18.219  0.00 -0.02     0.063 H 
BRANCH 25 29
ATOM     29  C21 UNL     1      -0.031  34.085  13.149  0.00 -0.40     0.000 A 
ATOM     30  C22 UNL     1      -0.036  35.429  12.740  0.00 -0.38     0.035 A 
ATOM     31  N4  UNL     1       0.272  35.790  11.474  0.00 -0.78    -0.264 NA
ATOM     32  C23 UNL     1       0.580  34.860  10.563  0.00 -0.51     0.027 A 
ATOM     33  C24 UNL     1       0.613  33.508  10.915  0.00 -0.21    -0.043 A 
ATOM     34  C25 UNL     1       0.286  33.105  12.213  0.00 -0.35    -0.051 A 
ATOM     52  H18 UNL     1      -0.277  36.233  13.418  0.00 -0.10     0.085 H 
ATOM     53  H19 UNL     1       0.849  35.202   9.573  0.00 -0.07     0.084 H 
ATOM     54  H20 UNL     1       0.926  32.764  10.191  0.00 -0.12     0.064 H 
ATOM     55  H21 UNL     1       0.309  32.048  12.459  0.00 -0.04     0.063 H 
ENDBRANCH 25 29
ENDBRANCH 20 23
ENDBRANCH 17 18
ENDBRANCH 13 17
BRANCH 9 2
ATOM      1  O1  UNL     1      -2.019  31.909  24.334  0.00 -0.10    -0.207 OA
ATOM      2  S1  UNL     1      -1.905  32.024  22.933  0.00 -0.35     0.240 S 
ATOM      3  O2  UNL     1      -3.195  32.065  22.321  0.00 -0.03    -0.207 OA
BRANCH 2 4
ATOM      4  N1  UNL     1      -0.996  33.305  22.677  0.00 -0.17    -0.211 N 
ATOM     35  H1  UNL     1      -0.064  33.264  23.116  0.00 -0.44     0.141 HD
BRANCH 4 5
ATOM      5  C1  UNL     1      -1.664  34.606  22.662  0.00 -0.18     0.014 C 
ATOM     36  H2  UNL     1      -2.719  34.504  22.936  0.00 -0.02     0.044 H 
ATOM     37  H3  UNL     1      -1.183  35.247  23.409  0.00 -0.12     0.044 H 
BRANCH 5 6
ATOM      6  C2  UNL     1      -1.550  35.321  21.317  0.00 -0.14    -0.028 C 
ATOM      7  C3  UNL     1      -1.988  34.487  20.114  0.00 -0.09    -0.049 C 
ATOM      8  C4  UNL     1      -0.513  34.794  20.339  0.00 -0.23    -0.049 C 
ATOM     38  H4  UNL     1      -1.804  36.371  21.340  0.00 -0.03     0.032 H 
ATOM     39  H5  UNL     1      -2.333  33.474  20.284  0.00 -0.01     0.027 H 
ATOM     40  H6  UNL     1      -2.480  34.992  19.295  0.00 -0.02     0.027 H 
ATOM     41  H7  UNL     1       0.150  34.007  20.678  0.00 -0.06     0.027 H 
ATOM     42  H8  UNL     1      -0.033  35.512  19.683  0.00 -0.06     0.027 H 
ENDBRANCH 5 6
ENDBRANCH 4 5
ENDBRANCH 2 4
ENDBRANCH 9 2
BRANCH 14 15
ATOM     15  O3  UNL     1       0.534  27.120  20.885  0.00 -0.10    -0.495 OA
ATOM     16  C11 UNL     1       0.343  25.811  21.445  0.00 -0.12     0.078 C 
ATOM     56  H22 UNL     1       0.913  25.117  20.838  0.00 -0.03     0.067 H 
ATOM     57  H23 UNL     1      -0.714  25.534  21.400  0.00 -0.01     0.067 H 
ATOM     58  H24 UNL     1       0.709  25.787  22.470  0.00 -0.03     0.067 H 
ENDBRANCH 14 15
TORSDOF 9
ENDMDL
